18
1 0
C   -0.42927903  -1.32092774  -0.59716801
C   -0.34639240  -1.11810889   0.92237125
C   -0.69887562   0.00846880  -1.31621787
C    0.68870984  -0.06147544   1.29500884
C    0.33527006   1.06814927  -0.94963408
N    0.39027756   1.23528307   0.56021327
H    0.51584701  -1.75737395  -0.96562960
H   -1.22305299  -2.04358199  -0.83586230
H   -1.33229646  -0.82476799   1.32683497
H   -0.06964520  -2.05229513   1.43490840
H   -0.67499968  -0.11752221  -2.40962686
H   -1.70981534   0.38182246  -1.07074585
H    0.69753325   0.17247748   2.36875784
H    1.70494375  -0.35224986   0.98867740
H    1.35150228   0.77739586  -1.25598830
H    0.10818356   2.05608810  -1.37408500
H   -0.51468318   1.60288348   0.88769937
H    1.08865585   1.94773005   0.80878394
