16
1 0
C   -1.11536800  -1.52491133  -0.39690835
C   -1.33172348  -1.70545124   0.93511718
C    0.01231639   0.07506250   0.73293650
C    0.83978326   1.19561713   0.90258324
C    1.35112164   1.78898871  -0.23531538
C    1.04322811   1.27430896  -1.52202368
C    0.23209992   0.17831989  -1.65497398
N   -0.27782488  -0.41349861  -0.52288856
N   -0.63821399  -0.72539655   1.61683267
H   -1.47493093  -2.07571555  -1.25940013
H   -1.92427977  -2.45605097   1.44899099
H    1.05918002   1.56877194   1.90290936
H    1.99857785   2.66222030  -0.14519231
H    1.44783766   1.74384669  -2.41845761
H   -0.04874847  -0.27364921  -2.60523759
H   -0.61126322  -0.60899082   2.62435767
