20
1 0
C   -1.82547795  -2.52303406  -1.02563277
C   -1.88512493  -2.11780673   0.31248560
C   -0.98947218  -1.85523755  -1.92755846
C   -1.11281056  -1.04508488   0.75314852
C   -0.21027667  -0.78358387  -1.49651521
C    1.76299295   2.12856757   1.59989065
C    1.71123501   2.67325623   0.35208685
C   -0.26817594  -0.37065167  -0.15067208
C    0.54294897   0.75042356   0.30505337
N    1.03738126   0.94915234   1.54444377
N    0.95706534   1.80740152  -0.42388450
H   -2.43320037  -3.36297853  -1.36707819
H   -2.54460517  -2.63255347   1.01289490
H   -0.93596026  -2.17800882  -2.96842676
H   -1.19730594  -0.71395990   1.79085142
H    0.46703067  -0.29536749  -2.20114996
H    2.24945637   2.47001422   2.50742640
H    2.13506147   3.58995517  -0.04400358
H    0.93619077   0.28350311   2.30434291
H    0.68984176   1.96383623  -1.39078415
