16
1 0
C   -1.34605714  -1.81968379  -0.21401192
C   -1.21239817  -1.53122868   1.16376172
C   -0.71659162  -1.05423881  -1.19064373
C   -0.44372930  -0.46555620   1.62139531
C    1.37779842   1.80437005  -0.51143128
C    0.05631438   0.01729262  -0.73205235
C    0.18954608   0.30468370   0.64079849
N    0.81545905   0.98122567  -1.40069730
N    1.02134712   1.42475444   0.71878465
H   -1.96106524  -2.66740012  -0.51958936
H   -1.72736049  -2.16323466   1.88875717
H   -0.82158291  -1.27900000  -2.25250871
H   -0.34242845  -0.24551957   2.68460756
H    2.02130612   2.64712105  -0.75029148
H    0.93485717   1.06161435  -2.40677144
H    1.32124881   1.89352610   1.56920482
