10
1 0
C   -0.16557637  -0.32676795  -1.13553760
C   -0.72042754  -0.94961798  -0.05338806
C    0.51742083   0.74542068   0.69433630
N    0.59450129   0.71769915  -0.63987388
N   -0.27875443  -0.26284540   1.06356519
H   -0.24645074  -0.53537864  -2.19757901
H   -1.38054269  -1.80848619   0.01432398
H    1.00945550   1.45426579   1.35460271
H    1.13627614   1.37421410  -1.19732099
H   -0.51718007  -0.48240006   2.02804848
