12
1 0
C   -0.40196580  -0.62373441  -0.86145019
C   -0.38335572  -0.75540491   0.67860495
C    0.23198050   0.77890667  -0.71944065
N    0.47766803   0.51555219   0.77604441
H    0.25041203  -1.34672546  -1.36777172
H   -1.39505068  -0.64798689  -1.32516271
H   -1.34332017  -0.57610896   1.17820216
H    0.12081124  -1.62050230   1.12539809
H    1.16719546   0.98859929  -1.25198487
H   -0.46173399   1.62208177  -0.82475741
H    0.15132203   1.24010803   1.42758330
H    1.46201388   0.32413910   0.99922379
