11
-1 0
C    0.31122466   0.09562606  -1.37065861
C    0.62244696   0.74884369  -0.22200817
C   -0.04934461   0.15097155   0.96834458
C    1.52340746   1.93751985  -0.07157168
N   -0.83511800  -0.92277584   0.66744946
O    0.11226744   0.61621581   2.13225341
S   -0.78079034  -1.22744238  -1.02149805
H    0.65068208   0.30606106  -2.38521220
H    0.97896967   2.78155691   0.38156415
H    2.35190062   1.71088044   0.61857714
H    1.94128324   2.25998935  -1.03739370
