15
1 0
C   -1.00615733  -1.35256657  -0.17711205
C   -0.90903486  -1.10041113   1.19942919
C   -0.32925863  -0.54292628  -1.08930347
C   -0.13104325  -0.04021723   1.62118518
C    0.44805638   0.52707465  -0.63993803
C    1.18461381   1.47363571  -1.53458209
N    0.50992145   0.72437011   0.70273657
H   -1.61141898  -2.18706727  -0.53715285
H   -1.42527731  -1.71909251   1.93317271
H   -0.39544774  -0.73241017  -2.16101046
H    0.01178588   0.23240314   2.66681258
H    0.53399503   2.32444836  -1.80195240
H    2.08930226   1.87371062  -1.05275973
H    1.47688678   0.97226051  -2.46698248
H    1.07982353   1.49955504   1.04186362
