9
-1 0
C   -0.35008718  -0.43014046   0.34017264
C   -1.13854410  -1.43954921   1.11831419
N   -0.26545435  -0.42046343  -1.00070592
N    0.36719030   0.55958460   0.89736908
N    0.54436929   0.62491054  -1.27925680
N    0.91996772   1.20640228  -0.15246841
H   -0.48856439  -2.20971085   1.56706585
H   -1.69199614  -0.95992360   1.93966148
H   -1.85412807  -1.94619115   0.45600990
