10
-1 0
C    0.23335646   0.44381566  -0.33290212
C   -0.83538253  -1.57384816   0.94861734
C   -0.07182173  -0.24991199   1.03586257
O    0.93170768   1.49104435  -0.24912872
O   -0.24721152  -0.09924830  -1.36465151
H   -1.78910961  -1.43553460   0.42101699
H   -0.26406235  -2.31759967   0.37448880
H   -1.04134356  -1.99134257   1.95080893
H    0.89035097  -0.38992480   1.55512145
H   -0.63589585   0.47635105   1.64537331
