16
-1 0
C    0.03610499  -0.34430751  -0.89880184
C   -0.41742579  -0.90799241   1.53253636
C   -1.05488540   1.34966257   0.64182300
C    1.36622491   0.78341230   1.00839522
C   -0.00019567   0.22955444   0.58267040
O   -1.05839888  -0.81807251  -1.30877068
O    1.13438784  -0.27173867  -1.50978906
H   -0.51293449  -0.54490083   2.57203908
H   -1.37734721  -1.33130497   1.21087166
H    0.32991854  -1.71652919   1.52396903
H   -1.15942560   1.74544265   1.66845656
H   -0.77214884   2.18607774  -0.01603893
H   -2.02654162   0.96745506   0.30426892
H    1.32404872   1.17861383   2.03995911
H    2.13607803   0.00189576   0.96159022
H    1.68793764   1.58884258   0.33508215
