7
-1 0
C    0.05980705   0.07842839  -0.06826409
C   -0.79611679  -0.88908667   0.80577850
O   -0.11859279   0.00168749  -1.31491753
O    0.85744085   0.82119185   0.56780728
H   -0.17693701  -1.75979065   1.07995265
H   -1.67702811  -1.25078051   0.25513415
H   -1.10497589  -0.39675188   1.74063738
