8
-1 0
C   -0.14678844   0.70606798  -1.61066666
C   -0.76803596  -0.00891080  -0.40281360
S    0.43023525  -0.33449364   0.96126648
H    0.27787804   1.67398774  -1.30310775
H    0.67632018   0.10534932  -2.02718213
H   -0.89336014   0.88603829  -2.41173036
H   -1.20987340  -0.96061610  -0.75057282
H   -1.60701786   0.60572939  -0.02829792
