15
1 0
C   -1.12509257  -1.53516093  -0.77706913
C   -1.17523783  -1.41528328   0.56898165
C    0.18497516   0.20435206  -0.20418751
C    1.44997287   1.98914211   0.93051158
N   -0.27746422  -0.52338248  -1.24618508
N   -0.35765035  -0.32977083   0.91207014
N    1.02608580   1.24460320  -0.25534485
H   -1.60531554  -2.23591304  -1.45114016
H   -1.70843040  -1.98891279   1.31897000
H    0.59967439   2.49826234   1.41433694
H    1.95015435   1.32372073   1.65293772
H    2.17437448   2.75019428   0.61802430
H   -0.03672498  -0.36251070  -2.21787156
H   -0.19657005   0.01184884   1.85239593
H    1.31314033   1.57724295  -1.16804668
