13
1 0
C    0.17815112   0.23815627  -0.38438961
C   -0.72156872  -0.94153689   1.60500435
N    0.99158547   1.17666578  -0.89252148
N    0.04083476   0.11646880   0.93880798
N   -0.48228446  -0.58381049  -1.20999226
H   -1.80843044  -0.79132477   1.49673850
H   -0.43432603  -1.92787300   1.21026943
H   -0.47541157  -0.92003148   2.67328464
H    1.62231483   1.70265582  -0.29967957
H    1.01113160   1.37496578  -1.88552606
H    0.43067510   0.85335121   1.51617889
H   -0.30005386  -0.58394204  -2.20627491
H   -1.21929857  -1.18836632  -0.86970611
