18
1 0
C    0.17684470   0.15508536  -0.30319175
C   -0.82681088  -1.19484542   1.66204790
C    1.88761359  -0.64720229  -1.88643750
C   -0.35885897   0.16994854   1.16056690
N    1.28352920  -0.54123770  -0.55449750
N   -1.50563811   1.14645179   1.05194422
O   -0.47746675   0.79492152  -1.13982266
H   -1.58793563  -1.62596309   0.99210104
H    0.01947003  -1.89593286   1.69894557
H   -1.23571274  -1.12292844   2.68152637
H    1.93305469  -1.70151805  -2.19598732
H    1.26629107  -0.08352813  -2.59146788
H    2.90397596  -0.22698974  -1.87359335
H    0.39476019   0.60258206   1.83450703
H    1.75053422  -1.00771219   0.21645451
H   -1.35117980   2.02708286   1.55365291
H   -2.40601851   0.75477630   1.34848802
H   -1.48702009   1.31791694  -0.02336362
