9
-1 0
C    0.28436321  -0.23924494  -2.18864326
O   -0.46612347  -0.94781455   1.53901254
O   -1.10399968   1.21899654   0.14005965
O    1.43343079   0.61772788   0.53938901
O   -0.05609879  -0.91613918  -1.02046131
P   -0.04785550   0.11190942   0.47645538
H    0.24706469  -0.94888528  -3.04766049
H    1.30915930   0.19013954  -2.14265650
H   -0.41159649   0.60020051  -2.40604336
