8
-1 0
C   -0.49848194  -0.17780848  -1.64288279
O   -0.98611822  -0.78422973   0.89697720
O    1.43118499  -0.56954490   0.13984955
O   -0.02248062   1.50470513   0.35641656
S    0.03199506   0.01131451   0.10521011
H    0.20504476   0.38221510  -2.26986937
H   -0.47815605  -1.24642836  -1.88635608
H   -1.51330430   0.22703227  -1.73170079
