8
1 0
C    0.38039034   0.49633192  -0.50855980
N   -0.33227931  -0.43355783   0.44423808
H   -0.37561203   1.04565897  -1.08252997
H    0.99569718   1.18676907   0.08087995
H    1.00758493  -0.10860411  -1.17445467
H    0.32996479  -0.98069090   1.01377232
H   -0.93026717  -1.10906590  -0.05415123
H   -0.93980518   0.08019817   1.09941856
