15
1 0
C   -0.60442549  -1.16951582  -0.91614127
C   -0.56736182  -0.85192350   0.59454781
C    0.19756162   0.12728779  -1.16013847
C    0.99821341   1.17897481   1.09308051
N   -0.09167627   0.57394343   0.28032816
H   -0.11454533  -2.10102059  -1.22241752
H   -1.61691146  -1.13703054  -1.33938751
H   -1.50236180  -0.86419220   1.16819767
H    0.22640803  -1.36706491   1.15106259
H    1.28048609  -0.01769539  -1.26692715
H   -0.16367793   0.84951770  -1.90266020
H    1.86002993   0.49911536   1.08922785
H    1.27855135   2.14492101   0.65131037
H    0.63813368   1.32477263   2.12064472
H   -0.89794792   1.20959255   0.28357735
