13
0 0
C	-0.0251664	 1.3637189028	 0.0047144977	-0.242277
O	 0.0269138482	-0.066202265	-0.0279041689	-0.24494
C	 0.6415521001	-0.5914982977	-1.0782481065	 0.462815
N	 1.1754141344	 0.1207832682	-2.0439476397	-0.258126
O	 1.6931720984	-0.8981082636	-2.9022518999	-0.221254
C	 1.38738091	-2.0588569439	-2.3149969686	 0.514797
N	 1.8179384115	-3.1968205784	-2.9131335221	-0.591658
N	 0.7368939542	-1.9522543638	-1.1892443084	-0.404458
H	 0.9840840114	 1.7858646576	 0.0162313406	 0.144796
H	-0.5608134285	 1.7500073594	-0.8675548454	 0.14391
H	-0.5557029993	 1.6194195131	 0.9217151066	 0.137255
H	 2.0331680455	-3.1405480739	-3.895538267	 0.276883
H	 1.3700754742	-4.0441038648	-2.6036886582	 0.282257
