18
0 0
C	 0.2493004815	 1.4982153822	 0.0362890972	-0.491067
C	-0.1134966781	 0.0218781835	 0.0463513945	 0.393383
O	-0.4959225568	-0.5208542062	 1.0524636064	-0.292176
C	-0.0158068062	-0.754517576	-1.3000386495	-0.075156
C	-1.3421110586	-0.4808943871	-2.063424498	-0.408326
C	 1.1881206789	-0.2962675459	-2.1555723895	-0.421409
C	 0.0983984393	-2.1887572931	-1.033367179	 0.376175
C	 0.2120347438	-3.3729437841	-0.8667896713	-0.481665
H	 1.3354022717	 1.6143803944	-0.0485314292	 0.149041
H	-0.1961356965	 2.0288044728	-0.810260422	 0.136787
H	-0.0823302671	 1.9466871758	 0.9732984366	 0.145498
H	-1.4556000839	 0.5857711495	-2.2805596754	 0.116159
H	-1.3399623351	-1.0253218762	-3.0113999083	 0.132629
H	-2.1994661704	-0.8147269322	-1.474601661	 0.144064
H	 2.1315231171	-0.4463165412	-1.6234474568	 0.130952
H	 1.2265303473	-0.8827562048	-3.0772096456	 0.133259
H	 1.1026572178	 0.7588973551	-2.4285052044	 0.116523
H	 0.3052733752	-4.4165563166	-0.6941370846	 0.195326
