21
0 0
C	-0.0125365497	 1.4253077179	-0.2544027562	-0.406299
C	 0.1455601528	-0.069763288	-0.0846099074	-0.073383
C	 1.516648689	-0.6956341944	 0.0094615877	-0.340862
C	 0.6229936971	-0.6431064973	 1.2196926925	 0.288483
C	 0.9255419632	 0.052418824	 2.5600136121	-0.323904
C	 0.6624701799	-1.3059082808	 3.2893767076	-0.322989
C	 0.1320645561	-1.8670628891	 1.9643812129	 0.402907
C	-1.0286765095	-2.7231323167	 1.7125999905	-0.271713
O	 0.3139777492	-3.2003744032	 1.5219116437	-0.274492
H	 0.7606236731	 1.968942751	 0.2980252309	 0.116473
H	 0.068180177	 1.7139261064	-1.308113465	 0.118954
H	-0.9861192573	 1.7700687356	 0.1120419974	 0.115785
H	-0.6023082068	-0.6636876889	-0.6067707388	 0.081814
H	 1.6754810943	-1.6686918656	-0.4435606462	 0.124402
H	 2.3797574399	-0.0360854048	-0.0085727011	 0.106636
H	 1.930520901	 0.4644059385	 2.6748713179	 0.104487
H	 0.1978040861	 0.8254664902	 2.8227153087	 0.105085
H	 1.5824188371	-1.808149049	 3.599020074	 0.119742
H	-0.0334485773	-1.2875541204	 4.1310870147	 0.105155
H	-1.5670110045	-3.1675921974	 2.5495118099	 0.111841
H	-1.6124633008	-2.5990447479	 0.8011192541	 0.111875
