18
0 0
C	 0.5139522678	 1.8896378204	-0.6341023418	-0.418585
C	 0.0326416353	 0.4565231777	-0.6998849202	-0.006963
C	 0.9226455082	-0.6230039915	-1.2667796353	-0.132013
N	 0.5309788522	-0.6127443979	 0.1436277938	-0.09651
C	 1.577786699	-0.362891733	 1.1259643011	-0.317567
C	 0.4111186609	-1.7105057841	-2.1538803218	 0.259017
O	 1.0191889566	-2.0647067445	-3.1433198073	-0.298556
C	-0.8656194706	-2.3076536797	-1.792808736	 0.27955
C	-1.9275048947	-2.815081324	-1.541458591	-0.449598
H	 1.5987855165	 1.9680541156	-0.5374407372	 0.126986
H	 0.2220236053	 2.418993357	-1.5463786972	 0.134642
H	 0.0561573557	 2.4119374978	 0.2132657407	 0.129706
H	-1.0337870537	 0.3560344446	-0.8987227921	 0.105359
H	 1.936153757	-0.3194901434	-1.5270919087	 0.099851
H	 2.3621647199	 0.3336235627	 0.7961531533	 0.107808
H	 1.1211772016	 0.0365050548	 2.0368693689	 0.129063
H	 2.0539674841	-1.3158043362	 1.374335839	 0.135023
H	-2.8619778612	-3.2690075865	-1.316830018	 0.212789
