19
0 0
C	 0.2238171468	 1.5293304865	 0.169222846	-0.412767
C	-0.0941572672	 0.0277400431	 0.0519330531	-0.096084
C	-1.5997299052	-0.1764413333	 0.0147642	 0.174441
O	-2.2302693939	-0.7985724203	 0.8281791731	-0.243895
C	 0.5307824316	-0.5544668796	-1.2100755676	-0.007505
C	 1.9020662802	-1.142462954	-1.1958644079	-0.314238
C	 0.7066521112	-2.0564712139	-1.4430031833	-0.113046
C	 0.353176872	-3.063122786	-0.4123369418	 0.165075
O	-0.090165777	-4.155179781	-0.6669525309	-0.265717
H	 1.3053785674	 1.6910361254	 0.1549336345	 0.132037
H	-0.2092275151	 2.0901824238	-0.6668284088	 0.124471
H	-0.175189201	 1.9452592251	 1.0987105592	 0.133893
H	 0.2739710568	-0.4953915753	 0.9391304213	 0.098939
H	-2.1024511801	 0.3108538133	-0.8551918053	 0.072894
H	 0.2560738312	-0.01568738	-2.1143741235	 0.103953
H	 2.5725057762	-0.9640545199	-2.0284228988	 0.133081
H	 2.3958741502	-1.2379956303	-0.2331687491	 0.128364
H	 0.5478458793	-2.4104423539	-2.455836338	 0.111028
H	 0.5476929166	-2.7549606697	 0.6395058378	 0.075075
