15
0 0
C	 0.0151919231	 1.5201835186	-0.0207760074	-0.485205
C	 0.0153815664	 0.0280021514	-0.040900268	 0.28559
C	-0.1173069648	-0.8155362693	-1.1083450275	-0.183993
N	-0.0468017598	-2.1009823548	-0.585276614	-0.323831
C	 0.1243481284	-1.952226338	 0.7487148738	 0.482386
O	 0.2373892059	-3.0726183771	 1.5107573405	-0.236143
C	 0.0952046692	-2.9422839398	 2.8736648242	 0.161354
O	 0.2338056252	-3.8834597028	 3.5874873928	-0.255368
N	 0.1729732201	-0.7074826976	 1.1291180293	-0.39686
H	 0.9530939452	 1.9086949343	 0.3902739543	 0.136771
H	-0.110505764	 1.9241104137	-1.0287508024	 0.120953
H	-0.7955252652	 1.9062497331	 0.6065110468	 0.135205
H	-0.2435431394	-0.638800276	-2.1628619719	 0.135099
H	-0.1100210248	-2.9747118789	-1.079718413	 0.27756
H	-0.1472243756	-1.9126352666	 3.1672330225	 0.146481
