16
0 0
O	 0.1736811238	 1.2640413067	 0.2821168622	-0.415411
C	 0.0627348428	-0.0913363412	-0.090092803	-0.08179
C	-1.4012795373	-0.5426691573	-0.0785317422	-0.122089
C	-1.7710940077	-2.053872634	-0.1962815358	-0.279456
C	-2.7131107928	-1.9337716791	 1.0548731422	-0.266194
C	-2.6574428807	-2.9429322073	 2.0917776746	 0.287587
N	-2.5803249436	-3.7453699377	 2.9203992867	-0.312451
C	-2.0315186497	-0.5534337383	 1.3131320959	 0.399305
O	-1.9042405218	 0.1369272451	 2.2798440235	-0.290712
H	-0.1859238218	 1.3470699157	 1.1744545753	 0.300824
H	 0.4788655153	-0.1815428971	-1.0987043001	 0.121904
H	 0.6516988958	-0.7495372644	 0.5689881196	 0.099159
H	-1.9818988055	 0.0859370963	-0.7627701986	 0.125271
H	-2.2595795062	-2.3704796243	-1.1165544354	 0.133356
H	-0.9196775165	-2.7060977277	 0.0073107374	 0.142584
H	-3.752201374	-1.7656461954	 0.7504729275	 0.158112
