16
0 0
N	 0.0206573506	 1.3419933971	 0.0163967247	-0.450428
C	 0.014518176	 0.0776133819	-0.0726855656	 0.094357
N	-1.1576632505	-0.6793309062	 0.0084871785	-0.067772
C	-1.0969469555	-2.1360161268	 0.011735368	-0.186115
C	-1.3089655299	-2.7187287269	 1.427757873	-0.336068
C	-1.1685905281	-4.1714494232	 1.4331259666	 0.259724
N	-1.0430614419	-5.3197676432	 1.4102203943	-0.296654
C	-2.4088496646	-0.0786701462	 0.0767655238	 0.158815
O	-3.4314616929	-0.716430071	 0.1841405542	-0.319709
H	 0.9643638605	 1.7054135629	-0.0911021221	 0.241583
H	 0.8958060383	-0.5560386049	-0.2232311644	 0.111066
H	-1.8754259484	-2.5183902169	-0.6510664122	 0.162818
H	-0.1259306311	-2.4440807234	-0.3821355744	 0.136288
H	-0.5837273067	-2.288067487	 2.1267549601	 0.15489
H	-2.309858133	-2.4472239686	 1.775016715	 0.187934
H	-2.3516263629	 1.0157393527	 0.0175112207	 0.149269
