19
0 0
C	-0.3016948764	 1.6173846211	 0.0345753525	-0.449643
C	 0.0301558305	 0.1164222461	 0.0419393887	 0.037128
C	 1.0201537413	-0.2953257427	-1.0772117301	-0.075751
O	 1.6306787047	-1.5050615292	-0.6500703151	-0.266881
C	 1.4841692132	-1.645513421	 0.7600500773	-0.09399
C	 0.8483469761	-0.3505584476	 1.2806253097	 0.083927
O	 1.8146063108	 0.6546371184	 1.5493645293	-0.444715
C	-1.19686534	-0.6774997935	-0.0438507991	 0.334384
C	-2.2132452689	-1.3165673481	-0.1075015379	-0.484368
H	 0.608956732	 2.206169855	 0.1500254713	 0.14095
H	-0.7904391789	 1.8892808091	-0.905334538	 0.122609
H	-0.9842654015	 1.8653474992	 0.8516284719	 0.126029
H	 0.5213186353	-0.4726110551	-2.0338078	 0.110961
H	 1.7727608997	 0.4954616647	-1.2033729011	 0.099202
H	 0.8462247261	-2.5117264139	 0.9793162593	 0.109937
H	 2.4672753654	-1.8170316074	 1.2194580629	 0.087478
H	 0.2043663711	-0.5250852369	 2.1519031897	 0.0799
H	 2.4493975653	 0.2996927719	 2.178941106	 0.287299
H	-3.109143046	-1.8830635402	-0.1725888872	 0.195545
