21
0 0
O	-0.0537966939	 1.4455186054	-0.0317979316	-0.433433
C	 0.0378403991	 0.0408493245	 0.0326479529	 0.148685
C	 0.2877845627	-0.6411098745	 1.4061785289	-0.336518
C	-0.8129161379	-1.6733638139	 1.0347497449	 0.384476
C	-0.4266755226	-3.1084925243	 0.5336794055	-0.311009
C	-1.4125532948	-3.7058770542	 1.5439064587	-0.033801
C	-1.0491539618	-3.270472724	 2.9344900454	-0.283396
C	-1.7755822429	-2.303712076	 2.0380911886	-0.120595
C	-1.3238588609	-0.6758580406	-0.0376355059	-0.317009
H	 0.8337833593	 1.8099435383	 0.0449562995	 0.279985
H	 0.7293681198	-0.3468538654	-0.7295417377	 0.065119
H	 1.2919422755	-1.0140192909	 1.6265833462	 0.087274
H	-0.042414888	 0.0175994652	 2.215831735	 0.103042
H	-0.7199032817	-3.2708633754	-0.5069223565	 0.101232
H	 0.6207185699	-3.4095141883	 0.6537127299	 0.089201
H	-2.0633100895	-4.5522034433	 1.3613192285	 0.083068
H	-1.6484930681	-3.7007447815	 3.7307170207	 0.108208
H	-0.0092781936	-3.0981722197	 3.2045074091	 0.103018
H	-2.7452111491	-1.8963756327	 2.3028764104	 0.078596
H	-2.0992683711	-0.0188985126	 0.3700847725	 0.108329
H	-1.6570718504	-1.0708336961	-1.000823745	 0.095525
