16
0 0
C	 0.0191334532	-1.242912257	-0.1218818478	-0.458364
C	 0.0160923812	-0.0426964211	-0.0487136995	 0.326587
C	 0.0224561918	 1.4037415054	 0.0668455139	-0.178
C	-0.2355865544	 2.0394432868	 1.4867378703	-0.309517
C	 1.118755278	 2.7619319904	 1.3913446839	 0.223417
C	 2.2312439885	 1.7540633439	 1.1919672074	-0.319811
C	 1.3899026051	 2.1189013809	 0.0145850669	-0.097891
C	 1.3619779247	 4.0999198094	 1.8178748283	 0.179611
N	 1.5436507042	 5.1892104551	 2.1659619522	-0.347527
H	 0.0167821695	-2.3022730611	-0.1981188125	 0.203389
H	-0.6664701928	 1.8406921814	-0.6608982414	 0.120552
H	-1.0879647895	 2.718908632	 1.4802992347	 0.134
H	-0.3332944215	 1.3376184719	 2.3176140542	 0.124141
H	 3.2323773545	 2.1700277547	 1.1949249469	 0.142824
H	 2.1398923534	 0.7733959242	 1.6505950913	 0.136409
H	 1.8035595142	 2.5907225331	-0.8672492686	 0.120179
