21
0 0
O	 0.112472566	 1.368077346	-0.21903483	-0.427539
C	-0.0558584575	-0.0135540048	-0.0069651074	 0.109712
C	 0.4174563538	-0.6255039803	 1.3103194378	-0.083778
C	-0.4306081408	-0.144389051	 2.4599630894	-0.30228
C	-0.9777276435	-1.2118219232	 1.5596486163	-0.054178
C	-1.5057343705	-0.6066415646	 0.2488621079	-0.058926
C	-2.6885458238	 0.3234880704	 0.2853758973	 0.036511
C	-3.4602180959	 0.6116658196	-0.9774920169	-0.263272
C	-4.0858024473	-0.2245595525	 0.1104042184	-0.277604
H	-0.0607905591	 1.8214163038	 0.6122901333	 0.278826
H	 0.4050744634	-0.4978736273	-0.871202337	 0.089009
H	 1.388477131	-1.0751238247	 1.4800879387	 0.085449
H	-0.0994608838	-0.4791445253	 3.4375143418	 0.115679
H	-0.8642911846	 0.8535628434	 2.4765532091	 0.096206
H	-1.227193656	-2.1965759434	 1.9352884219	 0.08606
H	-1.7003962142	-1.3945442093	-0.4869846331	 0.065518
H	-2.6027421612	 1.1580834407	 0.9754957628	 0.068242
H	-3.8327105869	 1.6175196035	-1.1356162577	 0.110197
H	-3.1448256424	 0.1101429139	-1.8865840065	 0.110037
H	-4.1923188723	-1.2902812791	-0.0651889257	 0.10736
H	-4.8878741643	 0.2081441641	 0.6981935297	 0.10877
