17
0 0
C	-0.1094203953	 1.514218424	 0.4748655912	-0.400181
C	-0.0250904708	 0.0873090137	-0.1254649478	-0.228151
C	 0.8482682585	-0.7771264399	 0.7923450053	 0.173755
O	 1.9844836871	-1.0741698248	 0.5477598506	-0.234233
C	-1.3446674192	-0.5097864644	-0.2723826301	 0.06107
C	-2.4363624829	-1.0166711587	-0.3738388567	 0.030061
C	-3.7530551686	-1.615245717	-0.5192110451	 0.25048
C	-4.1209752296	-2.6423339633	 0.5312685775	-0.478502
O	-4.4925782419	-1.3014034982	-1.4267061735	-0.27213
H	 0.8905923952	 1.9517306859	 0.529972666	 0.142032
H	-0.741403874	 2.1469573063	-0.1518201816	 0.149096
H	-0.5404008442	 1.4889974819	 1.4798526526	 0.136646
H	 0.4784231258	 0.1342866302	-1.0974150023	 0.138428
H	 0.3434242048	-1.0878761808	 1.734130279	 0.091144
H	-4.0809948188	-2.1917468868	 1.5289323707	 0.14585
H	-5.1232912181	-3.0245456132	 0.333194439	 0.145903
H	-3.3970136782	-3.4643718349	 0.5225928552	 0.148732
