19
0 0
C	 0.3039031142	 0.6986470065	-1.3909363895	-0.475737
C	-0.0340431281	 0.0167333664	-0.0853614213	 0.293073
C	 1.0096613044	-0.6269625272	 0.7268644346	-0.21891
O	 0.4551533181	 0.6396997807	 1.1079085904	-0.275711
C	-1.4446056405	-0.4505054796	 0.0366322327	 0.448366
C	-2.5868381482	 0.3360901996	 0.601354632	-0.335427
C	-2.2641532471	-1.0396668216	 1.1584208903	-0.204994
C	-2.6644858259	-2.0921333651	 0.1310993791	-0.08838
O	-1.9195773794	-1.4113970364	-0.919408754	-0.333386
H	 1.3537249611	 1.0007418641	-1.4082103964	 0.123476
H	 0.1126660388	 0.0209919844	-2.2284953438	 0.143281
H	-0.3178758491	 1.5893142466	-1.5269326869	 0.130405
H	 0.7506371253	-1.4619790984	 1.3748750758	 0.111327
H	 2.0454103911	-0.5962144524	 0.391706813	 0.114056
H	-2.2996890166	 1.1545042323	 1.2529651497	 0.132928
H	-3.4799188105	 0.495274165	 0.0026649247	 0.111408
H	-2.0158854338	-1.2123600563	 2.1965158017	 0.108234
H	-2.23708919	-3.0831482371	 0.3203549693	 0.109647
H	-3.7292018841	-2.1878371316	-0.1123754016	 0.106344
