17
0 0
O	 0.1056349851	 1.3712877569	 0.1231678201	-0.477687
C	 0.0460183955	-0.0097897269	 0.0315211067	 0.365808
C	 1.0296872875	-0.8918630559	-0.7414070074	-0.19556
C	 0.2788982671	-2.0386180211	-1.403640006	-0.232242
C	-1.0543619116	-2.0814242821	-0.6624074126	-0.117625
C	-0.9577557393	-2.0207148229	 0.8407677665	 0.094628
O	 0.3299494441	-1.9584318316	 1.4084673266	-0.249669
C	 1.0007202871	-0.895962295	 0.778325836	 0.040322
C	-1.2750482065	-0.7606350835	 0.0719413977	-0.20184
H	-0.1259751652	 1.7395811692	-0.7366566	 0.284902
H	 1.8994898993	-0.4519894355	-1.2176260742	 0.088186
H	 0.1276567954	-1.8443075494	-2.4720493433	 0.098815
H	 0.8197100217	-2.9879796724	-1.3120522507	 0.112379
H	-1.8894739015	-2.6206568741	-1.0963779248	 0.085945
H	-1.6644335049	-2.5446485134	 1.4726238374	 0.102005
H	 1.8415776865	-0.5184690061	 1.346881629	 0.109615
H	-2.2117807804	-0.2231387962	 0.130729129	 0.092016
