21
0 0
C	 0.2053556026	 1.0727805582	 0.6576444567	-0.251823
O	 0.5555431925	-0.2409777362	 0.2674662851	-0.278924
C	 0.8423956997	-0.437362963	-1.113778067	 0.235508
C	-0.2844332511	 0.0053601981	-2.04923098	-0.433424
C	 2.1611432933	 0.2799224327	-1.4374338437	 0.131719
O	 2.4323903623	 0.7896843472	-2.49298661	-0.252316
C	 1.1306227404	-1.9296437173	-1.2852588059	-0.004016
C	 1.8052925205	-2.7374786305	-0.2046085023	-0.277209
C	 0.3470926598	-2.961739836	-0.5141557956	-0.278244
H	 0.9212152614	 1.8237423308	 0.2925292694	 0.116108
H	-0.7974278306	 1.355894271	 0.3129051913	 0.119721
H	 0.2159915112	 1.0858164855	 1.750061646	 0.132546
H	-0.4745176667	 1.0792155671	-1.9790061204	 0.120739
H	-0.0028135936	-0.2038485604	-3.0833399125	 0.137212
H	-1.2025561852	-0.5380614446	-1.8120423002	 0.123295
H	 2.8840859313	 0.2524255209	-0.5904661125	 0.086329
H	 1.387111581	-2.1807038767	-2.3099333779	 0.09746
H	 2.525944737	-3.4887026934	-0.5076647902	 0.11061
H	 2.0330490123	-2.2331382597	 0.7262585561	 0.127389
H	-0.3700416987	-2.5975547231	 0.2110211462	 0.126432
H	 0.0559006105	-3.8664787607	-1.0358987425	 0.110885
