12
0 0
O	 0.0852869156	 1.3169185111	 0.2357986769	-0.425228
C	 0.0689382702	-0.0116421387	 0.0064829835	 0.389906
C	 0.0629858726	-0.7708779766	-1.1500749938	-0.279496
C	 0.0438219332	-2.1260356998	-0.7417282806	-0.204274
C	 0.0391443329	-2.1580471767	 0.6406994375	 0.200499
N	 0.0546291905	-0.8367903855	 1.0815982956	-0.356662
C	 0.0222611939	-3.2397203003	 1.5396361568	 0.197963
N	 0.0083446365	-4.1231846871	 2.2923570833	-0.355303
H	 0.0951218265	 1.7787168098	-0.6085808677	 0.316577
H	 0.0712835927	-0.3928696027	-2.1601035883	 0.106449
H	 0.034573787	-2.9946023249	-1.3806449342	 0.124943
H	 0.0550877985	-0.5340019685	 2.041112971	 0.284626
