17
0 0
N	 1.1059214627	-0.8200254433	 1.2059038001	-0.298435
C	 0.8095846517	 0.1016433983	 0.5769526379	 0.279236
C	 0.4194309036	 1.2730412352	-0.219771121	-0.47276
C	 1.5545634359	 2.1126528906	-0.5964815874	 0.046018
C	 2.4851330237	 2.7992179196	-0.9305532625	 0.099505
C	 3.6317090433	 3.6402276945	-1.2962170346	-0.280388
N	 4.4211279669	 4.213312237	-0.201953769	-0.073208
C	 3.7380214545	 4.6289354419	 1.0178494359	-0.217811
C	 4.6183206225	 3.4266276117	 1.0108275252	-0.219606
H	-0.1055033041	 0.9183385189	-1.1161928309	 0.185217
H	-0.3163292084	 1.8489075852	 0.3561882096	 0.182642
H	 4.3171656444	 3.0551076247	-1.921300925	 0.143761
H	 3.278916966	 4.4732742527	-1.9165780054	 0.140967
H	 4.0808319293	 5.5675058811	 1.4435070521	 0.11893
H	 2.6684049065	 4.447656063	 1.0964474209	 0.117397
H	 4.1243629412	 2.4605245979	 1.0855718672	 0.128414
H	 5.6188253003	 3.4685718607	 1.431127617	 0.120121
