20
0 0
C	 0.078889724	 1.4193710838	-0.0016885962	-0.322089
N	 0.0372808134	-0.0327538316	 0.0782775708	-0.398939
C	-1.2182373986	-0.62788892	 0.0261252683	 0.449573
C	-2.4961449731	-0.0952958472	 0.0231699365	-0.403142
C	-3.3537460636	-1.2231491272	 0.0308831569	 0.364211
C	-4.8501677905	-1.2443932812	 0.0330708949	-0.490735
N	-2.6679164843	-2.3601869521	 0.0319222373	-0.339665
N	-1.356952382	-1.9804068404	 0.0430082683	-0.032375
C	-0.3094108909	-2.9706558031	 0.0533172763	-0.339572
H	 1.119241342	 1.7484571454	 0.0516366681	 0.124554
H	-0.37326378	 1.8233613454	-0.920614532	 0.117017
H	-0.4554887521	 1.8442730213	 0.8532346153	 0.141524
H	 0.7109731694	-0.4736140937	-0.5341328517	 0.23746
H	-2.7697474442	 0.9466810576	 0.0119550729	 0.089864
H	-5.2613293384	-0.7326804724	-0.844515028	 0.121541
H	-5.2059187804	-2.277003831	 0.0273058904	 0.134695
H	-5.2576089464	-0.7437682587	 0.9187725055	 0.122503
H	 0.1490400604	-3.1004840813	-0.9363021218	 0.1241
H	 0.4691408645	-2.6876425253	 0.7688790033	 0.138925
H	-0.7550078989	-3.9179366582	 0.3563079549	 0.16055
