16
0 0
C	-0.5403912199	 1.3010202728	 0.1615999357	-0.401671
C	 0.2405567165	 0.0147924452	 0.0118232564	 0.169459
C	 0.9517644277	-0.2675777091	-1.3333881048	-0.323376
C	 2.2305755707	-0.3229014616	-0.4774887246	-0.00101
O	 1.5244036778	 0.0631671229	 0.7050651665	-0.302675
C	 2.846896199	-1.7058401332	-0.3255783495	 0.268217
F	 3.4484261102	-2.0690970576	-1.4716297199	-0.081001
F	 3.7636219118	-1.7277627026	 0.6461325394	-0.069829
F	 1.9220422867	-2.6333127353	-0.0383434591	-0.08211
H	 0.0345675072	 2.1534460049	-0.2130930087	 0.121621
H	-1.4817046296	 1.2405494247	-0.3955699056	 0.12146
H	-0.7781207536	 1.4821024049	 1.2143652675	 0.134217
H	-0.3445257526	-0.8384942025	 0.3759666215	 0.092504
H	 0.6778014922	-1.1889969359	-1.846476156	 0.129816
H	 0.9283620037	 0.5664878553	-2.0361167079	 0.117553
H	 3.0392473822	 0.3714624174	-0.7325354108	 0.106824
