18
0 0
C	 0.0905670315	 1.5966473663	-0.0515029903	-0.289714
C	 1.354506655	 0.7370363341	-0.0570128715	-0.093094
C	 1.9921615742	 0.7890117973	 1.289071866	-0.162056
C	 1.6477296312	-0.138559659	 2.1930035256	 0.129051
C	 0.7782987894	 0.1678971705	 3.3934865809	-0.183029
N	-0.2875055505	-0.7328052935	 2.7626182033	-0.173947
C	-0.3629824595	-0.7839795724	 1.2094858664	-0.020221
C	-0.0242913391	 0.1009462644	 0.0206784551	-0.01872
C	 0.7831286474	-1.3578842653	 1.917123373	-0.117838
H	-0.1104182253	 2.1763322247	 0.8435495356	 0.120449
H	-0.2045892017	 2.0820600742	-0.9762729079	 0.112662
H	 1.9191093623	 0.6794250238	-0.9821246839	 0.091387
H	 2.3174417712	 1.7663488191	 1.6447919727	 0.091921
H	 1.0316842586	-0.3249144647	 4.3373543704	 0.117672
H	 0.5036557887	 1.2121224637	 3.5724885386	 0.106298
H	-1.2166383571	-1.4302497465	 1.0217905627	 0.102389
H	-0.3922464526	-0.3683596153	-0.8887064376	 0.091342
H	 1.0722813863	-2.4006706214	 2.0033250309	 0.095448
