19
0 0
O	-0.1718364481	 1.3662163599	 0.0931378926	-0.47769
C	-0.0681119959	-0.0212577303	-0.0208889758	 0.400072
C	-0.5186478473	-0.7056587229	-1.2907027486	-0.369672
C	-1.3159029898	-0.8681140651	-0.0132974742	-0.076766
C	-0.9318282806	-2.0167198288	 0.9432997743	 0.085865
C	-0.1505732236	-1.248836294	 2.0257618566	-0.227901
C	 0.8786404999	-0.7457556631	 0.9775842669	-0.114194
C	 1.31280303	-2.1031998135	 0.4143373284	-0.094284
O	 0.0808692223	-2.8508753328	 0.347962679	-0.279333
H	 0.5347923709	 1.762921709	-0.4278523328	 0.281378
H	-0.9590055216	-0.0421186674	-2.0283146892	 0.108903
H	 0.0007734109	-1.5633387717	-1.6990761766	 0.129805
H	-2.3028990508	-0.424987005	 0.0594009786	 0.092454
H	-1.7552990893	-2.6579013105	 1.2571296593	 0.075791
H	-0.724693056	-0.4367681239	 2.4765220702	 0.110409
H	 0.2720528117	-1.8930455938	 2.802761686	 0.095036
H	 1.6943161155	-0.1165436182	 1.3339149437	 0.06592
H	 1.762844074	-2.0440231829	-0.582569554	 0.097994
H	 2.0186529478	-2.6118671549	 1.0840849153	 0.096214
