17
0 0
N	 0.0012842515	 1.4945174163	-0.1250329552	-0.501082
C	 0.009067554	 0.0292216953	-0.0539865747	-0.019614
C	 0.7625834197	-0.5372693684	 1.1323162	-0.093617
C	 0.1360463305	-1.0036941458	 2.210672152	-0.067149
C	-1.3627329251	-1.0041758654	 2.3172667596	-0.128524
O	-1.9865316245	-0.2243068897	 1.3071271537	-0.259898
C	-1.4388661137	-0.4964872007	 0.0246730445	-0.048104
C	-2.3214399128	 0.1043503181	-0.9836324789	 0.3075
N	-3.0203936107	 0.518147926	-1.8036725062	-0.322343
H	-0.3550232617	 1.861989402	 0.7532066198	 0.236219
H	 0.9500080922	 1.8429450567	-0.2227886276	 0.232682
H	 0.4512908724	-0.3401823797	-0.9869411839	 0.102227
H	 1.8481797118	-0.5206529145	 1.0815458333	 0.097079
H	 0.684904761	-1.4073278301	 3.0573523275	 0.103833
H	-1.7479042065	-2.0398852893	 2.2911088179	 0.111493
H	-1.6865147508	-0.5686266583	 3.2687758158	 0.131824
H	-1.4258920474	-1.5839590326	-0.1553901976	 0.117473
