19
0 0
C	-0.1683725844	 1.5639278012	-0.5117523869	-0.384206
C	-0.1704016387	 0.1917822808	 0.1662959026	-0.182928
C	-1.4428564586	-0.6180671489	-0.1037259412	 0.10278
O	-1.6502646256	-0.7939261282	-1.5161248457	-0.424732
C	-1.4397042294	-1.9630799979	 0.6397149759	-0.304173
C	-2.7579946509	-2.7478040268	 0.6473656615	 0.366295
N	-3.436678718	-2.7507341773	-0.532724322	-0.513031
O	-3.1357707087	-3.346848739	 1.6366565204	-0.364056
H	 0.7711429486	 2.0924542045	-0.3264931007	 0.115027
H	-0.3012305846	 1.4659716297	-1.5923000918	 0.125671
H	-0.9843850346	 2.1891841889	-0.1335443086	 0.119373
H	 0.6970470226	-0.3968376868	-0.1679817952	 0.088903
H	-0.0566074505	 0.3066874476	 1.2507368245	 0.108794
H	-2.312654586	-0.0313861937	 0.2166659201	 0.102752
H	-0.8776664133	-1.2529027201	-1.8677095828	 0.283193
H	-0.6591791296	-2.6065092837	 0.2082700354	 0.11051
H	-1.1762201126	-1.8122480976	 1.6892180382	 0.130356
H	-3.1377890007	-2.155003647	-1.2911994138	 0.266238
H	-4.334263435	-3.2060076154	-0.55702711	 0.253235
