17
0 0
C	-0.0292428904	 1.3796699276	-0.20011097	-0.241865
O	-0.0747659371	-0.0541362981	-0.2329980519	-0.20729
C	-1.2955777195	-0.5858559496	-0.2013382583	 0.373522
O	-2.3257649516	 0.0414928425	-0.1486627785	-0.352153
C	-1.2408419723	-2.1320401768	-0.2405910602	 0.25539
O	-0.182116323	-2.7140268979	-0.2930362928	-0.308137
C	-2.5617746081	-2.796239795	-0.2086070658	-0.108699
C	-2.6908641881	-4.1080096103	-0.9778750681	-0.248384
C	-2.6373642431	-4.1426154949	 0.5062240238	-0.248336
H	 1.0274967765	 1.6419230833	-0.2331628893	 0.14287
H	-0.5582397156	 1.7986412998	-1.0598206271	 0.145
H	-0.4919990615	 1.7557635266	 0.7158050684	 0.144975
H	-3.4192698949	-2.1403587934	-0.1622601051	 0.122196
H	-3.6357382718	-4.2848996334	-1.478113715	 0.125033
H	-1.8051580717	-4.4212912563	-1.5188290689	 0.14042
H	-1.7155469237	-4.4792486502	 0.9668554287	 0.140409
H	-3.544083134	-4.3441154541	 1.06440789	 0.125049
