25
0 0
C	-0.0034405258	 1.5513245205	-0.2303201633	-0.401477
C	 0.0223232115	 0.0545554863	 0.0820955075	 0.134714
O	 0.599176687	-0.1915229663	 1.36507287	-0.428131
C	-1.3618422377	-0.5934452617	-0.0482547709	-0.18087
C	-1.35149708	-2.110407304	 0.1817640295	-0.207832
C	-2.7390749258	-2.7161788962	 0.1307204145	 0.009757
C	-3.3782061365	-3.1046145952	-1.18455017	-0.292857
C	-3.0051349471	-4.1721070626	-0.1821775094	-0.004616
C	-1.9068402597	-5.1724086359	-0.472028004	-0.403053
H	 0.9937892421	 1.9828450291	-0.1084511935	 0.122101
H	-0.3420366514	 1.7377962797	-1.2546851394	 0.11464
H	-0.6889869343	 2.0772970686	 0.4465646803	 0.104052
H	 0.7093581712	-0.4416722667	-0.6159296405	 0.085388
H	 0.0534781364	 0.2620403835	 2.0176196265	 0.2739
H	-2.0420117813	-0.1138187134	 0.6728449395	 0.078167
H	-1.7707252506	-0.3718963967	-1.0423678592	 0.096076
H	-0.7061153015	-2.5766292336	-0.5724274175	 0.089662
H	-0.8829008884	-2.3140480278	 1.1515664025	 0.107236
H	-3.4199577454	-2.2817085131	 0.8607667382	 0.073115
H	-4.4256635814	-2.8794647151	-1.354733423	 0.103822
H	-2.7608725025	-3.0280071808	-2.0756861168	 0.10262
H	-3.8420651802	-4.600966973	 0.364261521	 0.078287
H	-1.0991873941	-4.7361362873	-1.0665237609	 0.115862
H	-1.4643696787	-5.5617107024	 0.4520072666	 0.115622
H	-2.3007539958	-6.0254975358	-1.0358403179	 0.113816
