15
0 0
O	 0.0138330956	 0.0200730417	-0.0532587671	-0.318462
C	-0.0120697297	 1.219699652	-0.0038682596	 0.4367
C	-1.2185577192	 2.1711670738	 0.0306972717	-0.367375
C	-0.4432307531	 3.4761256423	 0.0095092779	 0.021087
C	 0.7977559737	 3.3909959222	-0.9242409175	-0.075676
C	 1.5096313287	 4.2749993	 0.1038404876	-0.169781
N	 0.7310726324	 3.3176330239	 1.0142098527	-0.160723
C	 1.1443736951	 2.1949000762	 0.0150073241	-0.106692
H	-1.8773597337	 2.0245311316	-0.8303828179	 0.131439
H	-1.8033372904	 2.0332744363	 0.945461486	 0.141289
H	-0.9847080278	 4.4187675997	 0.0997186436	 0.08532
H	 0.8374350549	 3.4149868423	-2.0190210785	 0.076676
H	 2.5942581892	 4.1855374661	 0.2040708813	 0.109255
H	 1.1898408736	 5.3174987097	 0.1980068688	 0.104285
H	 2.1582846707	 1.8095601021	 0.109416847	 0.092657
