21
0 0
C	-0.2434969369	 1.5420744944	-0.0098552448	-0.500985
C	-0.1343029651	 0.0900226201	-0.0321022112	 0.070322
C	-0.0504372247	-1.1126740718	-0.0481556937	 0.018017
C	 0.0638842919	-2.5496762825	-0.0877370462	 0.166856
C	 1.1925694929	-3.0999996148	-0.952136118	-0.255831
C	 2.5766240205	-2.6773466525	-0.4721669898	-0.071511
O	 3.5306833463	-3.2665147365	-1.3449799459	-0.421751
C	-0.3071194033	-3.3211962703	 1.1739725617	-0.290232
C	-1.2265815176	-3.3531668126	-0.0125041933	-0.305314
H	 0.2701483214	 1.991166815	-0.8673234667	 0.147101
H	-1.2902790363	 1.864065322	-0.0496388685	 0.146139
H	 0.1985269427	 1.9666450434	 0.8987786811	 0.144214
H	 1.1441374509	-4.19483818	-0.9574631088	 0.100306
H	 1.0648140874	-2.7686307805	-1.9888068077	 0.110852
H	 2.6480888414	-1.5797874385	-0.4781372339	 0.097959
H	 2.7260855733	-3.0106145814	 0.5676045246	 0.083104
H	 4.4042159381	-2.9649266859	-1.0801713757	 0.284609
H	 0.2756411359	-4.20890283	 1.3965622357	 0.115882
H	-0.6094642995	-2.7483095773	 2.0422446914	 0.121629
H	-2.1550170135	-2.7978592912	 0.0449010209	 0.122186
H	-1.276464316	-4.2614838892	-0.6034114312	 0.116451
