16
0 0
C	-0.0028342473	 1.523054979	-0.0018745974	-0.473703
C	-0.0168608418	 0.0219229887	-0.0050039956	 0.192158
C	-1.1192514153	-0.7269266597	-0.1160020741	-0.155565
C	-1.1236705244	-2.2227526983	-0.1182261502	-0.407273
C	 0.2329869034	-2.8933636112	 0.0164457191	 0.42232
O	 0.3790017774	-4.0937867415	 0.0294952405	-0.346106
N	 1.310816374	-2.0309973619	 0.125256597	-0.391139
C	 1.3092699141	-0.633830033	 0.126727308	 0.391051
O	 2.3516761909	-0.0219716376	 0.2316129125	-0.342187
H	 0.6150028163	 1.9073473325	-0.8195556572	 0.147016
H	-1.0139129955	 1.924237996	-0.1025493818	 0.118899
H	 0.4407043093	 1.9052930759	 0.9228822808	 0.147012
H	-2.088399114	-0.2429762605	-0.212213607	 0.111335
H	-1.7567751409	-2.6103664236	 0.69084851	 0.160952
H	-1.5841956938	-2.6083227235	-1.037419381	 0.160952
H	 2.2216200874	-2.4653638413	 0.2157081167	 0.264276
