15
0 0
O	-0.1448825385	 1.4856065147	-0.0698219456	-0.434823
C	-0.0182756099	 0.0923123628	-0.0673935101	 0.099346
C	-1.3144960598	-0.708288263	-0.1040918565	-0.070138
C	-0.7295960011	-1.753276995	-0.9536301716	-0.143475
N	-1.7939514956	-0.8393326346	-1.5322319499	-0.201495
C	-0.7390041247	-0.2235756087	-2.3252152001	 0.373275
N	-0.6957495722	 0.2123990823	-3.5006815529	-0.576851
C	 0.3561457385	-0.6330022324	-1.3862184839	 0.255269
O	 1.6649435358	-0.7187172909	-1.7706400985	-0.472784
H	 0.7329661503	 1.8711604704	-0.1613264703	 0.29581
H	 0.6167280755	-0.2744883684	 0.751692526	 0.090282
H	-2.0812746288	-0.779983602	 0.6547428604	 0.117865
H	-0.7903740595	-2.82998883	-1.0008383504	 0.126704
H	-1.6274723157	 0.2475334995	-3.9194695548	 0.234806
H	 1.6836975556	-0.7154440049	-2.7372483618	 0.306208
