14
0 0
O	-0.1107394637	 0.535659703	-0.4608511565	-0.279832
C	 0.0798007322	 1.6388946058	-0.013859338	 0.124119
N	 1.2750989666	 2.0584663874	 0.5543801859	-0.051771
C	 2.5840946029	 1.6991027613	 0.0664068206	-0.253485
C	 2.1326124222	 3.1326028976	 0.098283659	-0.004224
C	 1.8459592378	 3.850616377	-1.214182532	-0.365712
C	 0.8498533204	 4.9129155172	-1.0676671178	 0.265144
N	 0.0626284314	 5.7476573077	-0.9337592695	-0.295123
H	-0.7019271055	 2.4173241538	 0.0548062702	 0.112669
H	 3.2931291053	 1.3425575959	 0.8076901358	 0.140385
H	 2.6294767575	 1.198072823	-0.8980360631	 0.142406
H	 2.5080816475	 3.779862752	 0.887917924	 0.128238
H	 2.7742970469	 4.2928479417	-1.5940290195	 0.168345
H	 1.4966659685	 3.1374556465	-1.9693832291	 0.168841
