17
0 0
C	 0.1167490229	 1.5770711037	 0.0403064159	-0.385667
C	-0.2629853262	 0.1157381187	-0.2195156354	-0.2027
C	 0.6519316614	-0.5584081541	-1.2207245182	 0.062656
O	 2.0422611832	-0.6652449776	-0.7269262401	-0.274215
C	 2.0832429879	-2.0315488956	-0.8896631068	 0.419673
O	 2.989989789	-2.7723753256	-0.6963696313	-0.329375
C	 0.6352717624	-2.0824789559	-1.3476469544	 0.207209
C	-0.393064626	-3.0954237996	-1.1008446095	-0.249269
O	 0.1321289337	-2.8473458226	-2.4107364653	-0.248605
H	 1.1379246347	 1.6472626451	 0.4245748685	 0.144165
H	 0.0606551416	 2.1698746629	-0.87887122	 0.12168
H	-0.5564343135	 2.0297774268	 0.7733974891	 0.121024
H	-0.2426337824	-0.454776487	 0.7165322866	 0.109573
H	-1.287549425	 0.0535434221	-0.608694948	 0.111456
H	 0.6561974565	-0.0479358502	-2.1889232968	 0.113474
H	-0.1056198835	-4.0453314758	-0.6552271278	 0.146181
H	-1.4224370865	-2.7794226453	-0.9422558065	 0.132739
