17
0 0
C	-0.1308012195	 1.5415210348	-0.0613475773	-0.457658
C	-0.0361506813	 0.0258896005	-0.0466843792	 0.066088
C	-1.1477229012	-0.6585693942	 0.5525892112	 0.267822
C	-2.0851577759	-1.2365245976	 1.0373775998	-0.423444
C	 0.6888794659	-0.711696385	-1.1861157447	-0.011243
N	 1.3153494198	-0.0785570225	-2.3005601028	-0.523384
C	 1.341985504	-0.6509609121	 0.178392161	-0.249169
C	 2.497449314	 0.1777358127	 0.3622651916	 0.304901
N	 3.4230636399	 0.8628217209	 0.4825869189	-0.347162
H	 0.7119981619	 1.9911544534	-0.5892370907	 0.126807
H	-1.0545515297	 1.8494489996	-0.5597496152	 0.132942
H	-0.1455780087	 1.9398908217	 0.9567000948	 0.145083
H	-2.9133729929	-1.7414413032	 1.4696326601	 0.200304
H	 0.2575143695	-1.6798896535	-1.4247872617	 0.121356
H	 0.6410056658	 0.3463095155	-2.9270258068	 0.243863
H	 1.9955582102	 0.6210242351	-2.0274219411	 0.254991
H	 1.3415613182	-1.5581047459	 0.7711973319	 0.147903
