18
0 0
C	-0.0590233058	 1.5638746703	-0.0718928056	-0.404862
C	 0.0194651176	 0.0473077581	 0.0161110722	-0.106918
C	 1.0643166687	-0.6592297343	-0.8784202514	 0.026324
O	 2.3623280668	-0.2104547177	-0.4738769765	-0.248126
C	 1.7342288427	-1.2586298229	 0.2858256235	-0.074107
C	 0.7527076002	-0.6004733708	 1.232063898	 0.36875
C	 1.0228301657	-0.0392321857	 2.5935547852	-0.319356
C	 0.1115693765	-1.2365294726	 2.4286359229	-0.336176
H	 0.9423310556	 1.997551652	-0.0085274595	 0.135813
H	-0.5148496766	 1.8807605608	-1.0163705036	 0.112358
H	-0.6646201732	 1.9779209051	 0.7417057744	 0.111189
H	-0.9670662566	-0.4112748741	-0.1158447892	 0.076777
H	 0.9567461187	-1.0183960492	-1.8957341227	 0.099851
H	 2.2788631487	-2.1900862256	 0.3939018856	 0.101575
H	 2.0050030799	-0.1919244514	 3.02858875	 0.116513
H	 0.5676031098	 0.9126627114	 2.8479019406	 0.115329
H	-0.9548863254	-1.0942503352	 2.5735285969	 0.112412
H	 0.4764633565	-2.2065846781	 2.7522306092	 0.112655
