11
0 0
F	 0.0426640861	 0.0341524535	 0.0026860103	-0.058572
C	-0.028386192	 1.3598626735	 0.010894139	 0.315078
C	-1.218210679	 2.0025025716	 0.0303892476	-0.374728
C	-1.2359990398	 3.4547741732	 0.038540782	 0.44909
O	-2.209913522	 4.1816937652	 0.0556905712	-0.384809
N	 0.0628857655	 4.005727135	 0.0241692925	-0.257607
N	 1.2364641323	 3.3766763867	 0.0049650055	-0.162194
C	 1.2068154785	 2.0754060169	-0.0017859991	-0.100482
H	-2.1625269728	 1.4747543383	 0.0402016711	 0.14639
H	 0.114243539	 5.0163986452	 0.0290489197	 0.281189
H	 2.1546661443	 1.5519723208	-0.0173855197	 0.146646
