17
0 0
C	-0.2325696907	 1.5744056744	 0.0369558825	-0.394619
C	-0.0165730665	 0.0664287354	-0.0003642795	-0.172561
C	 1.1532785076	-0.4573152884	-0.9357459847	-0.181659
N	 1.7519381825	-0.9959121919	 0.3022422067	 0.092241
N	 2.7528840986	-1.6386203528	 0.8938232053	-0.194872
N	 2.4159702879	-1.6411969856	 2.1751234594	-0.246497
C	 1.2275391257	-0.993158881	 2.3812357616	 0.126687
N	 0.7204760916	-0.8094970261	 3.668362209	-0.597026
C	 0.7912307132	-0.5659062301	 1.1396788573	 0.303903
H	 0.7085047022	 2.1021854289	 0.2190816961	 0.131986
H	-0.653893055	 1.9314118634	-0.9085467202	 0.122212
H	-0.9279556037	 1.8439580509	 0.8376305644	 0.131804
H	-0.9589050743	-0.4510795207	-0.2052871007	 0.100379
H	 0.8865343656	-1.226195832	-1.6635738252	 0.139438
H	 1.7570474959	 0.322443664	-1.4053389733	 0.140212
H	 1.2361786445	-1.3794571418	 4.328368919	 0.253869
H	-0.2684307651	-1.0110200867	 3.7414533623	 0.244503
