23
0 0
C	 0.2336992185	 1.5022871093	 0.2742020144	-0.380157
C	-0.1687541904	 0.0792730686	-0.1395048482	-0.24583
C	 0.6106408065	-0.4557827569	-1.3364419761	 0.321214
C	 0.3909886681	 0.3313433166	-2.6169957795	-0.466193
C	 1.9796903713	-1.0400084852	-1.1041152561	-0.355188
C	 0.8297895136	-1.9785305302	-1.463773442	 0.076525
C	 0.3154252679	-2.9548499678	-0.4093563485	-0.460679
C	 0.828451517	-2.5537158348	-2.7853250235	 0.293907
C	 0.8075287356	-3.0827691789	-3.8665842793	-0.470367
H	 1.3054750815	 1.5596578019	 0.49274062	 0.117307
H	 0.0132064544	 2.2350741495	-0.5072019867	 0.120394
H	-0.3088447652	 1.8083777751	 1.174031743	 0.111628
H	-0.0343354812	-0.5785290479	 0.7230544986	 0.094986
H	-1.2413348361	 0.0591507806	-0.375085885	 0.097824
H	 0.7551039519	 1.3583193986	-2.5114874072	 0.114669
H	 0.9094799805	-0.1241556428	-3.462274428	 0.130739
H	-0.6751112392	 0.3780723713	-2.8682184388	 0.114456
H	 2.7489686508	-0.8745414213	-1.8504114066	 0.11702
H	 2.3502295269	-1.1022041569	-0.0851020571	 0.108387
H	 0.4445972795	-2.5716735597	 0.6044901135	 0.116955
H	-0.745753134	-3.1770878961	-0.5608940696	 0.125851
H	 0.8664353426	-3.8975857858	-0.4798186807	 0.128414
H	 0.7953752296	-3.5391274472	-4.8249572567	 0.18814
