16
0 0
O	-0.6687206206	 1.2447258249	 0.6474439039	-0.434218
C	-0.0499965535	 0.1176805598	 0.0438438261	 0.105598
C	 0.7822171127	-0.7105559581	 1.0655923477	-0.178378
N	-0.0840484533	-1.7843363192	 1.5656273293	-0.291608
C	-1.1045271818	-1.8260257841	 0.8160251238	 0.443565
C	-1.1801442058	-0.8532447846	-0.3309488451	-0.33113
O	-2.1337137639	-2.7125443318	 0.9378866694	-0.236362
C	-2.1998609876	-3.5065153295	 2.0628349063	 0.166381
O	-3.0461364256	-4.3358843169	 2.1660502374	-0.251182
H	 0.0229824476	 1.8315748273	 0.9697886474	 0.285909
H	 0.5490124385	 0.4208394714	-0.8246235102	 0.074365
H	 1.6728039255	-1.1556501556	 0.6038035215	 0.113665
H	 1.1260185298	-0.0843826191	 1.8966835448	 0.108297
H	-2.1444459358	-0.3450659487	-0.4000154675	 0.148743
H	-1.0002799679	-1.371330977	-1.2791769911	 0.13358
H	-1.4161480383	-3.2642942091	 2.7913781365	 0.142776
