20
0 0
C	 0.0112942366	 1.5924394814	-0.0576545562	-0.384366
C	 0.1864065393	 0.0718169401	-0.081109335	-0.18413
C	 0.5023884424	-0.5092844307	 1.3042574562	-0.234978
C	 0.6760767898	-2.0143605089	 1.290676905	 0.40639
O	-0.4688678687	-2.7457118072	 0.9443299463	-0.469011
C	 2.0022044452	-2.6330228881	 0.948947099	-0.33972
C	 1.4681366502	-2.7135628155	 2.3810728783	-0.230868
C	 2.103099793	-1.9678941674	 3.4289593611	 0.295824
N	 2.6153285535	-1.3597368248	 4.2698524719	-0.34795
H	 0.9214767882	 2.089031241	 0.295352948	 0.122336
H	-0.2168179544	 1.9811772059	-1.0546065387	 0.115393
H	-0.8052885644	 1.8854142703	 0.610767613	 0.122058
H	-0.7323499864	-0.3885967681	-0.4681573063	 0.091977
H	 0.9889245693	-0.197068097	-0.7805079334	 0.099427
H	 1.4109068995	-0.0436897268	 1.7015682808	 0.118568
H	-0.3080572867	-0.2630404744	 2.0013826057	 0.116458
H	-0.6253584169	-2.6241169601	 0.0014060539	 0.290484
H	 2.0008937018	-3.5635897137	 0.3937403818	 0.129618
H	 2.8513261993	-1.982648179	 0.773109051	 0.137447
H	 1.0636158094	-3.6726143971	 2.6843589979	 0.145045
