16
0 0
O	 0.0466128802	 1.4523566835	-0.0803077484	-0.418443
C	 0.070401952	 0.0487227599	-0.0072741512	 0.044717
C	 0.0650134384	-0.587110433	 1.4031464526	-0.096789
O	-1.2310606429	-1.1783633563	 1.176299545	-0.292352
C	-1.3346505447	-0.5887962002	-0.142816248	 0.103711
C	-2.5204577142	 0.3653826221	-0.2709493473	-0.280873
C	-3.8328540734	-0.3417641231	-0.0074373972	 0.148654
O	-4.7706129408	-0.3404529778	-0.7645094841	-0.243428
H	 0.9496097249	 1.7803504507	-0.0336062399	 0.293927
H	 0.8139016829	-0.3771332881	-0.6909943877	 0.084958
H	 0.8319807513	-1.3450112391	 1.6023443858	 0.103778
H	 0.0512082888	 0.1485800146	 2.2167504232	 0.106813
H	-1.394967637	-1.3724230443	-0.9089666141	 0.09058
H	-2.4032668343	 1.1678303185	 0.4670402057	 0.132899
H	-2.549333149	 0.8136948671	-1.2677911556	 0.125267
H	-3.877364122	-0.8775600045	 0.9648599713	 0.096582
