17
0 0
N	-0.0021479416	 1.5101060769	-0.0035122004	-0.499844
C	 0.013944564	 0.051626847	-0.0058221574	-0.151364
C	 0.5959658813	-0.5364777615	-1.2327008224	 0.262494
N	 1.03526024	-0.9612232434	-2.2140805805	-0.320618
C	 0.7732729174	-0.4616693258	 1.2448497821	 0.110698
O	 2.0856720842	 0.0477702062	 1.2755739152	-0.441351
C	 0.0333959819	-0.0872666917	 2.5281434594	 0.055766
C	 0.6825240038	-0.2627697417	 3.8311908924	-0.191045
O	 0.5764904994	 1.0367685164	 3.2241134764	-0.23453
H	 0.9544056825	 1.8446529226	-0.0779298801	 0.24677
H	-0.5028382316	 1.8617279087	-0.813122378	 0.24742
H	-1.020938394	-0.3076757087	 0.0610453029	 0.127454
H	 0.8336031444	-1.5550393643	 1.172444087	 0.112453
H	 2.0528048347	 0.80501548	 1.8823487428	 0.302043
H	-1.0540473152	-0.1032212181	 2.4762964145	 0.108328
H	 0.07633479	-0.4028684077	 4.7231988769	 0.130311
H	 1.6907751287	-0.6690640447	 3.8707376392	 0.135015
