15
0 0
C	 0.023249566	 1.4434533722	 0.0355841086	-0.340078
N	 0.0060575581	-0.0034538417	 0.0274026623	-0.034327
C	-0.0315259641	-0.8088094323	-1.0766624352	-0.005301
N	-0.0384408141	-2.0826868396	-0.7656474143	-0.273508
C	-0.0036427097	-2.1093185196	 0.6087893041	-0.160153
C	 0.0245193113	-0.8401415299	 1.1311808265	 0.269984
C	 0.0662323132	-0.3380711364	 2.5339880481	-0.503624
H	 0.9289133035	 1.8267970323	 0.5169072091	 0.14179
H	 0.0012558638	 1.8027093208	-0.9949708499	 0.145679
H	-0.8475284374	 1.8476653297	 0.562094723	 0.141788
H	-0.052222448	-0.3954571256	-2.0750608632	 0.119876
H	-0.0005563607	-3.0410871539	 1.1554467114	 0.101361
H	 0.9620395795	 0.2618955558	 2.7387052001	 0.127664
H	-0.8034733473	 0.2828989297	 2.7836717426	 0.12766
H	 0.0737244359	-1.1852080515	 3.2237154869	 0.141191
