23
0 0
C	-0.020065334	 1.5514806001	-0.094064882	-0.383154
C	 0.0033430967	 0.0357855673	 0.0678993799	 0.146189
O	 0.6309518342	-0.2406636544	 1.3096482009	-0.451177
C	-1.4058612571	-0.5755416177	-0.0069341012	-0.215786
C	-1.4259760608	-2.1099802623	 0.0180576866	 0.091652
O	-0.7933789786	-2.6288702261	 1.2067776472	-0.435373
C	-2.8182617219	-2.673121745	-0.1495890678	 0.005271
C	-3.3404271421	-3.011640083	-1.5248471928	-0.26562
C	-3.0038803544	-4.1124852376	-0.5521994897	-0.272893
H	 0.9927825496	 1.9512131161	 0.0053529151	 0.122684
H	-0.414797736	 1.8386946295	-1.0735263128	 0.104008
H	-0.6417246794	 2.0082707051	 0.6830706562	 0.11533
H	 0.5985252939	-0.3929675278	-0.7605642887	 0.053496
H	 0.4839811722	-1.181979406	 1.4820134809	 0.282724
H	-2.0032314533	-0.1887533044	 0.8313383498	 0.088583
H	-1.8977381312	-0.244725399	-0.9300502953	 0.100411
H	-0.7935028585	-2.4873820069	-0.7959781599	 0.086392
H	-1.3866861094	-2.4611103474	 1.9483165929	 0.283582
H	-3.5475617258	-2.2656425144	 0.5490193416	 0.078126
H	-4.38345785	-2.8101321048	-1.7412106667	 0.115232
H	-2.6765002711	-2.8592061668	-2.3697477495	 0.114945
H	-2.1088797752	-4.6977531545	-0.7336517487	 0.121873
H	-3.8175323377	-4.67180522	-0.104435606	 0.113504
