21
0 0
C	 0.0442982327	 1.506619752	 0.0737617184	-0.499806
C	 0.0924200342	-0.0051070111	 0.0435943454	 0.330583
C	 0.9578312133	-0.8056566919	-1.0035310998	-0.238969
C	 0.7576081047	-1.954643152	 0.0438448091	-0.048259
C	 0.8704104937	-0.8331572353	 1.110305797	-0.273653
C	-0.7515703974	-2.2098631632	-0.1220572082	-0.074869
C	-1.7753627183	-1.7670903874	 0.8783561589	 0.07201
O	-1.5717616174	-1.7902032203	 2.264134353	-0.41738
C	-1.2519082698	-0.7523649323	-0.1166294566	-0.144176
H	 1.0516204639	 1.9333235965	 0.1203055442	 0.112033
H	-0.4479897739	 1.9082117548	-0.8199737523	 0.111728
H	-0.512084542	 1.8677391266	 0.9464259458	 0.111723
H	 0.5398901529	-0.9491263828	-2.0048630856	 0.08207
H	 1.9911027737	-0.4497430502	-1.0673575256	 0.086197
H	 1.4030785368	-2.832730718	 0.067457226	 0.059099
H	 1.9011041993	-0.4766966846	 1.1910560656	 0.082427
H	 0.4363606212	-0.9890863838	 2.0921405126	 0.11838
H	-1.0535566455	-2.9270100897	-0.8787130082	 0.084182
H	-2.776879443	-2.1090836991	 0.603563498	 0.085295
H	-2.103623552	-1.084046641	 2.6470158186	 0.284651
H	-1.940978867	-0.3705920872	-0.8650009359	 0.076733
