19
0 0
C	-0.2728827432	 1.4633286003	-0.0879055063	-0.372571
C	 0.1278801316	-0.005202516	 0.1048747831	-0.198907
C	 0.7698128173	-0.5932341218	-1.1360359242	-0.043487
C	 0.9202994908	-2.0916000433	-1.3555838288	-0.056496
C	 0.4570906036	-3.1176440074	-0.3426075358	-0.402636
C	-0.0651141204	-1.3090481181	-2.1809866115	 0.076803
O	-1.4206864946	-1.5587692128	-1.9286820974	-0.416613
H	 0.5950934062	 2.0817722978	-0.3417930565	 0.114818
H	-0.9998886916	 1.5742536732	-0.9007731416	 0.101806
H	-0.723010465	 1.8765685408	 0.8202051019	 0.111459
H	 0.8228612004	-0.0828518445	 0.9506997369	 0.096424
H	-0.756228943	-0.5888479326	 0.3767377314	 0.107685
H	 1.5824246972	 0.0134494005	-1.5322639663	 0.07387
H	 1.8246439685	-2.3803037088	-1.8856385916	 0.080794
H	-0.5346553378	-2.8832198004	 0.0466336654	 0.134482
H	 0.3997759872	-4.1093185672	-0.8039845728	 0.115335
H	 1.1537316624	-3.1833968373	 0.5002885386	 0.110642
H	 0.1691904027	-1.1404626752	-3.2322177485	 0.078123
H	-1.9014234822	-0.7321195973	-2.040690386	 0.288467
