19
0 0
C	 0.3524265777	 1.413065927	 0.0294925218	-0.423512
C	-0.0129292447	-0.0793920294	 0.0102035688	 0.278495
C	-1.51954551	-0.2802400783	 0.1773081631	-0.427852
C	 0.5619392094	-0.7890062818	-1.2626680129	-0.201861
N	 1.8300779002	-1.4198004153	-0.8635795502	-0.287086
C	 1.8386016276	-1.3708558319	 0.4205615782	 0.266795
N	 0.7474179044	-0.8145837744	 1.0465509065	-0.358635
C	 2.9785821768	-1.8935253252	 1.2155762876	 0.109977
O	 3.0468547197	-1.7786799947	 2.4161980549	-0.265839
H	 1.4282274571	 1.5530844845	-0.1148741152	 0.127425
H	-0.1709808665	 1.9477727164	-0.7700259101	 0.121825
H	 0.0693564236	 1.875188153	 0.9818196938	 0.114701
H	-2.0625894435	 0.1733355378	-0.6585663177	 0.119496
H	-1.7644168464	-1.3448759461	 0.2146535455	 0.124313
H	-1.8815532387	 0.185774913	 1.1001590022	 0.115099
H	-0.121269912	-1.5716181348	-1.6201505714	 0.115148
H	 0.7209541908	-0.094875687	-2.0940653218	 0.113649
H	 0.8878452961	-0.4114215078	 1.9627053639	 0.248821
H	 3.7649660383	-2.3764620751	 0.6050652529	 0.10904
