20
0 0
C	 0.1593887802	 1.630580243	 0.2863145721	-0.43502
C	 0.126167894	 0.1230636537	 0.168365412	-0.042509
C	 1.2976955506	-0.748304773	-0.2402481047	-0.165098
C	 2.6122738571	-0.2532503916	 0.3821799767	-0.1912
N	 1.9695344612	-0.3295432198	 1.7027596733	-0.075035
C	 2.2491281699	 0.3877374496	 2.8185748505	 0.123503
O	 3.262667183	 1.035370806	 2.9866545496	-0.335031
C	 0.7058421646	-0.8484621544	 1.1705912919	 0.323256
C	-0.0434109892	-1.9412781113	 1.873727228	-0.488859
H	 1.0763215652	 1.9896740768	 0.7600029823	 0.14366
H	 0.0890009251	 2.0990758814	-0.7011214269	 0.122912
H	-0.6831997558	 1.9907965748	 0.8862717677	 0.121405
H	-0.8034152831	-0.261743632	-0.2492598835	 0.092103
H	 1.2360734976	-1.4688042632	-1.044753756	 0.098822
H	 3.4384302302	-0.9638222221	 0.2852667449	 0.124441
H	 2.9638385676	 0.7465086472	 0.1099542653	 0.127354
H	 1.4549627526	 0.2861579778	 3.5868410488	 0.065866
H	-0.536087555	-1.5727551365	 2.7806560347	 0.130288
H	-0.82157137	-2.3457580957	 1.219923018	 0.128258
H	 0.6277198241	-2.7572630608	 2.1603162253	 0.130885
