12
0 0
O	-0.2234859124	 1.4112117438	 0.0254585291	-0.409271
C	-0.080952731	 0.0271862722	 0.0530530572	 0.105861
C	-0.4492857404	-0.8049978859	 1.2477176665	-0.065289
N	-1.5656218185	-0.2272158822	 1.9980819175	-0.339335
C	-2.3887110133	-0.1731088175	 0.8511313237	 0.438926
O	-3.4980348557	 0.239201996	 0.6884535292	-0.331324
C	-1.3226512519	-0.8358399487	-0.0157480983	-0.272678
H	 0.5624888178	 1.8041417555	 0.4207792191	 0.292146
H	 0.7479942655	-0.3665079646	-0.5390347591	 0.101916
H	 0.1531871056	-1.5967395987	 1.6746865179	 0.114151
H	-1.4538010121	 0.5833864852	 2.5973198701	 0.24193
H	-1.4653354234	-1.606277785	-0.7600213029	 0.122967
