17
0 0
O	-0.0970190041	 1.4561530777	-0.0437222568	-0.431128
C	 0.014247891	 0.0446436978	 0.0118012025	 0.114893
C	-1.4034956624	-0.5153855352	 0.1067757306	-0.210392
C	-1.4026000719	-2.0510302104	 0.1920180445	-0.332057
C	-0.6305645226	-2.7030610359	-0.9428464149	 0.318448
O	-0.996274882	-3.6830518853	-1.539835197	-0.276877
C	 0.7264075271	-2.0284631056	-1.293761346	 0.297132
O	 1.6826179753	-2.6995415813	-1.5877321294	-0.275366
C	 0.736208985	-0.5109257912	-1.2319891271	-0.340134
H	 0.7892914857	 1.8314437113	-0.0657034903	 0.287354
H	 0.5752826118	-0.259395505	 0.9119964648	 0.078929
H	-1.9003212295	-0.0889574183	 0.9826714556	 0.121694
H	-1.9681586346	-0.1823228133	-0.7724168311	 0.119761
H	-0.9089940454	-2.3612539647	 1.1258504529	 0.134217
H	-2.412945854	-2.4664862649	 0.209267176	 0.135059
H	 0.1972095321	-0.1375951181	-2.1151888803	 0.14024
H	 1.7722120486	-0.1641929074	-1.3008826139	 0.118228
