16
0 0
O	-0.1053648782	 0.3098186362	-0.9949952259	-0.312467
C	-0.0656048987	 1.3114863897	-0.3357161492	 0.421381
C	-1.2162286165	 2.0312013405	 0.2863176373	-0.144095
C	-1.0251376965	 2.3990581292	 1.7281521931	-0.248786
N	-0.8034429592	 3.3901944879	 0.6895745689	-0.092225
C	 0.6269119397	 3.5542168372	 0.3287865213	-0.177145
C	 1.2178072077	 2.1673975392	-0.0556286733	-0.311759
C	 2.0656525126	 1.5468884791	 0.9489796836	 0.346146
C	 2.7550516012	 1.0388833226	 1.7934997173	-0.48051
H	-2.2067219449	 1.8811531224	-0.1278022999	 0.120293
H	-1.9156290823	 2.5543023021	 2.3297355559	 0.134714
H	-0.1728090156	 1.9828397312	 2.2586605573	 0.145654
H	 0.6651891281	 4.2215600255	-0.5363057067	 0.123843
H	 1.1626638951	 4.0274029704	 1.1538136538	 0.129662
H	 1.7648509751	 2.2278580948	-1.0014271188	 0.140336
H	 3.3720551925	 0.5841325423	 2.5286075553	 0.20496
