13
0 0
O	 0.0467382963	 1.378110623	 0.0095940516	-0.393508
C	-0.0079714251	-0.0200772778	 0.0026325784	-0.195431
C	-1.4691221877	-0.4231088737	 0.012370405	 0.447121
O	-2.4147796867	 0.3082136163	 0.0233548878	-0.267935
N	-1.6762120186	-1.8423941433	 0.0065797939	-0.061931
C	-2.84615486	-2.5297927794	 0.0125680197	 0.093946
N	-2.586048664	-3.8102076438	 0.0033566413	-0.220972
N	-1.2159111714	-3.910861373	-0.0084949736	-0.075771
N	-0.6645124679	-2.7544345248	-0.0067829654	-0.118721
H	 0.9720758931	 1.6399253522	-0.0019618651	 0.303554
H	 0.459775024	-0.4769132757	-0.8837892989	 0.146114
H	 0.4740084241	-0.4861121069	 0.8766052318	 0.146055
H	-3.8126894261	-2.055661713	 0.0231666634	 0.197477
