22
0 0
C	 0.0089119649	 1.6430698937	 0.0586893108	-0.382178
C	 0.0348697032	 0.1117397767	 0.0745391152	-0.17992
C	-1.3731772614	-0.4947405572	 0.0714837628	-0.209777
C	-1.4437896699	-2.0232737959	-0.0255334983	 0.357335
C	-0.7073803023	-2.7503484225	 1.0961317295	-0.436554
C	-2.9069396883	-2.5330618858	-0.212382397	-0.229463
N	-2.9454196233	-3.1750709219	-1.5354792837	-0.266707
C	-1.7765614123	-3.0478242923	-2.0075528843	 0.112273
O	-0.814669414	-2.4240519677	-1.2939019247	-0.254175
H	 1.0216952055	 2.0574528731	 0.0618740413	 0.113449
H	-0.5032994334	 2.0216173961	-0.8328057512	 0.116297
H	-0.5163433776	 2.0409796303	 0.9343266526	 0.112943
H	 0.582264906	-0.2605344835	-0.7983904685	 0.115065
H	 0.5882260963	-0.2295035273	 0.9573701096	 0.097429
H	-1.9127365031	-0.1915175317	 0.9794184168	 0.097882
H	-1.9406336614	-0.0826816016	-0.7731367164	 0.102981
H	-1.1245337202	-2.4667488959	 2.0682025523	 0.119633
H	-0.8164466635	-3.8326087298	 0.9805444444	 0.125953
H	 0.3593459252	-2.5146519445	 1.0960108291	 0.130499
H	-3.1924710808	-3.2552834487	 0.5604989915	 0.110855
H	-3.6342795968	-1.7139789082	-0.1767350957	 0.111161
H	-1.4517522927	-3.4085865754	-2.9780072561	 0.13502
