18
0 0
C	 0.169453829	 1.5330120464	 0.1469273123	-0.367283
C	-0.015915788	 0.0189346029	-0.0408467652	-0.26462
C	 0.7104911032	-0.4981090738	-1.2606725356	 0.350992
N	 0.2394993916	-0.089903063	-2.4481173682	-0.332788
C	 0.8735157561	-0.5190201497	-3.5419772588	 0.002499
C	 1.9815072466	-1.3554257019	-3.535308062	-0.215788
C	 2.4660312389	-1.7765166676	-2.2982367528	 0.426359
O	 3.5463617675	-2.5941322993	-2.2745696951	-0.431102
C	 1.8174577591	-1.3387103648	-1.1433240034	-0.338341
H	 1.2218347331	 1.7835339391	 0.3168384251	 0.112239
H	-0.1651418887	 2.064972816	-0.747219822	 0.140395
H	-0.4080747153	 1.893378503	 1.0036013282	 0.109909
H	 0.3262781564	-0.517340405	 0.850859162	 0.092184
H	-1.0831578522	-0.1982827428	-0.1614565328	 0.118506
H	 0.469666949	-0.1750042235	-4.4918212731	 0.107068
H	 2.4608309856	-1.6782240286	-4.4511948353	 0.106404
H	 3.7672695341	-2.8020286752	-1.3599110333	 0.300622
H	 2.1687045439	-1.6492502724	-0.1627949402	 0.082743
