15
0 0
N	 0.0028956508	 1.2797938631	-0.1994851877	-0.553419
C	 0.047716087	-0.0361501919	 0.1208830018	 0.32438
O	 1.041667495	-0.6360878804	 0.4960550461	-0.38636
C	-1.2630357397	-0.727794714	-0.0360159938	 0.134293
N	-1.5443142574	-1.9471747474	 0.7895817731	-0.355164
C	-1.5452432755	-2.1003838317	-0.6485115397	-0.10043
C	-2.9384951333	-1.6633998332	-1.1350629409	-0.335282
C	-2.5517013344	-0.2462850633	-0.6329399333	 0.370768
O	-2.9446492376	 0.8609444901	-0.8904387341	-0.33199
H	 0.8374845843	 1.8334309836	-0.0975055031	 0.266771
H	-0.8735662066	 1.7184761558	-0.4439513072	 0.284568
H	-0.6126267931	-2.2054453417	 1.130568346	 0.262069
H	-0.816671659	-2.7005393929	-1.1775964745	 0.137097
H	-3.0820668214	-1.666866849	-2.2180434602	 0.13913
H	-3.7735656892	-2.157088727	-0.6348740426	 0.143569
