19
0 0
C	-0.1471971813	 1.3566441389	-0.1876823156	-0.22849
O	-0.1265731567	-0.051500744	-0.1168389445	-0.236203
C	 0.7434477514	-0.638924112	-1.050765047	-0.10208
C	 0.705560817	-2.1545175796	-0.8480251263	 0.121619
C	-0.6581500261	-2.7834745326	-1.2771028324	-0.192204
N	-0.0721653719	-3.0556134594	-2.6099328325	-0.312977
C	 1.2980105327	-2.9303283874	-2.067478323	-0.214368
C	 1.2118279599	-2.5314648735	 0.4635565718	 0.240714
N	 1.6299137347	-2.8574802438	 1.4908354771	-0.346508
H	 0.8447193315	 1.7875190939	 0.0168752553	 0.112188
H	-0.4808580254	 1.7091300087	-1.175987936	 0.108187
H	-0.8495644775	 1.708457191	 0.5708330525	 0.135651
H	 0.4298788748	-0.416947985	-2.0830211885	 0.111679
H	 1.7739976352	-0.2694341286	-0.9199506637	 0.101755
H	-0.8971894216	-3.6753637127	-0.6850999786	 0.113692
H	-1.513850646	-2.1034398424	-1.2741885503	 0.12788
H	-0.2984457052	-3.9603765253	-3.0063551284	 0.228215
H	 1.9965043912	-2.3747642841	-2.7028364856	 0.114628
H	 1.7661571534	-3.872349262	-1.7564228143	 0.116621
