19
0 0
C	 0.0580425734	 1.618234592	-0.0205061374	-0.422605
C	 0.0738824712	 0.0866865824	-0.0255499582	-0.049804
C	 0.8438732603	-0.5253441794	-1.1793884008	-0.074203
C	 1.589698387	-1.5618320027	-0.8011148641	-0.158414
C	 1.4380718766	-1.8105794329	 0.6556666063	 0.451655
C	 1.2913592276	-3.1572052596	 1.238978244	-0.254039
O	 2.4954856784	-2.4105941804	 1.398347955	-0.269471
C	 0.7496421547	-0.5620571807	 1.2285357939	-0.026596
O	 1.7728284763	 0.2464602722	 1.7851041922	-0.412809
H	 1.0736585325	 2.0181488213	 0.0362098571	 0.135463
H	-0.407451799	 1.9993565568	-0.9349033212	 0.117757
H	-0.519027221	 2.0118593253	 0.8248053126	 0.106324
H	-0.9678060247	-0.2653028733	-0.0693801734	 0.082935
H	 0.750899006	-0.1541000192	-2.194496574	 0.097635
H	 2.2094709636	-2.1867345457	-1.4324920893	 0.10515
H	 0.6969892192	-3.2910307001	 2.142807484	 0.11169
H	 1.3604231506	-4.0340983493	 0.5952697782	 0.110074
H	 0.0074978836	-0.8209363847	 1.995917226	 0.062813
H	 1.3547097138	 1.008726518	 2.1968762788	 0.286445
