16
0 0
C	 0.0327412889	 1.4292753787	 0.0164786197	-0.344756
N	 0.028163772	-0.0159538834	 0.0294626103	-0.138725
C	-0.0021553307	-0.778970874	-1.1223256571	 0.461595
N	-0.030017435	-0.3376056554	-2.3131579635	-0.620844
O	 0.003982294	-2.0942863795	-0.7180297564	-0.220641
C	 0.0380047666	-2.1140245063	 0.6684054531	-0.148033
C	 0.0531775548	-0.8633170347	 1.1455666764	 0.281247
C	 0.0890381467	-0.3566490626	 2.5433729624	-0.49829
H	 0.9367683189	 1.8314373163	 0.4870827231	 0.128996
H	 0.0079939438	 1.7371872644	-1.0294991262	 0.183042
H	-0.8443019375	 1.8374322372	 0.5309297839	 0.129001
H	-0.0484218247	-1.1024914275	-2.9810154897	 0.222635
H	 0.0463751176	-3.0797959701	 1.1407745316	 0.14472
H	 0.1043005554	-1.1952213702	 3.2428321625	 0.141373
H	 0.9784104207	 0.2564318629	 2.7303701087	 0.139337
H	-0.7869003615	 0.2608479042	 2.7741420013	 0.139343
