23
0 0
C	-0.1094540639	 1.5506100788	-0.0447870626	-0.400858
C	 0.0565965259	 0.022652317	 0.0039333579	-0.092713
C	 0.7324396261	-0.4932138111	-1.2843702872	 0.122631
O	 1.9453192413	 0.2054223509	-1.562949073	-0.445278
C	 0.9681554574	-2.0041686394	-1.2040787641	-0.223058
C	 1.9241847886	-2.3381298359	-0.0501204653	-0.265695
C	 1.6275112564	-1.5289294895	 1.1853325485	-0.155434
C	 0.7991499886	-0.478342454	 1.2418307791	 0.315149
C	 0.5318401158	 0.2217301552	 2.550143927	-0.484259
H	 0.8604690504	 2.0545939495	-0.0619286368	 0.120928
H	-0.6425233101	 1.8384590978	-0.9566164654	 0.112744
H	-0.6818174412	 1.925365206	 0.8074690702	 0.110123
H	-0.9557658021	-0.4108911742	 0.0309653608	 0.081632
H	 0.0822274066	-0.2645142052	-2.1363596263	 0.076169
H	 2.4961345798	 0.1473755882	-0.7738131508	 0.281926
H	 0.0042105074	-2.5025583178	-1.0439546854	 0.094792
H	 1.3707862884	-2.367181257	-2.1545880511	 0.097953
H	 1.8708284965	-3.4074372681	 0.1889099522	 0.105329
H	 2.9654239261	-2.1706337385	-0.3637646089	 0.108301
H	 2.1299283042	-1.8455454025	 2.0981519406	 0.074498
H	 1.0478135251	-0.2761993169	 3.3753837849	 0.116449
H	 0.8548523933	 1.2688096329	 2.5317884584	 0.127161
H	-0.5414944405	 0.2328021939	 2.7814969672	 0.121509
