18
0 0
O	 0.2314984233	 0.3004747369	 1.2090510279	-0.409577
C	-0.1511396803	 0.2608145187	-0.1606802372	-0.214531
C	-1.4570822196	-0.3737721363	-0.2859847015	 0.124166
C	-2.5404085652	-0.8824211832	-0.4117852656	 0.025681
C	-3.8364927644	-1.5346459521	-0.5415699036	-0.350019
C	-3.7891092808	-2.9924343178	-0.0769056488	-0.067112
O	-5.0934271491	-3.5372478412	-0.2665792138	-0.179776
C	-5.3543656208	-4.7069452846	 0.3482223987	 0.128138
N	-6.4531869559	-5.2939899555	 0.1481848983	-0.436953
H	 1.0902628192	 0.7332632164	 1.2539722262	 0.29042
H	-0.2040819773	 1.2746652669	-0.5900703691	 0.119042
H	 0.5820936495	-0.3004622419	-0.7628306015	 0.116318
H	-4.5974988979	-1.0034609186	 0.0422203121	 0.146357
H	-4.1733014503	-1.5104340937	-1.584774259	 0.148274
H	-3.0536144097	-3.5547778705	-0.6653268478	 0.121424
H	-3.4973899427	-3.0443625646	 0.9793554691	 0.122183
H	-4.5422660739	-5.0472399526	 1.006323271	 0.086238
H	-6.4951351742	-6.1479149762	 0.7005194346	 0.229727
