19
0 0
O	-0.0330653953	 1.3420191568	-0.4127230648	-0.423739
C	 0.0746034268	-0.0133382958	-0.0139065968	-0.077005
C	-1.305992561	-0.6089285408	 0.1858089637	 0.124332
O	-2.0807019942	-0.5089126394	-1.0398034965	-0.329639
C	-2.5047317308	-1.8913815568	-0.9462797039	 0.13211
C	-2.0467626619	-2.7506665186	-2.1344278135	-0.275415
C	-0.7359670892	-3.3306539081	-1.6529083295	-0.061919
C	-0.4620248543	-3.0148940573	-0.3857065472	-0.07862
C	-1.5256462948	-2.1472775897	 0.2315254225	-0.157474
H	-0.62013365	 1.3465841827	-1.1784976765	 0.293745
H	 0.6298208334	-0.6082942493	-0.7533032701	 0.090241
H	 0.6355548346	-0.0276669736	 0.927607544	 0.103612
H	-1.821249046	-0.0793896722	 0.9989104421	 0.078463
H	-3.5781287745	-1.9550571472	-0.7405458331	 0.076873
H	-2.7726968834	-3.5355047688	-2.3847371926	 0.105876
H	-1.9345931626	-2.1242293808	-3.0276196313	 0.121824
H	-0.1060373766	-3.944556254	-2.2877310893	 0.09802
H	 0.4217274373	-3.333243712	 0.1563384483	 0.098297
H	-1.9189001176	-2.530704025	 1.1758893746	 0.080418
