23
0 0
C	-0.2119795444	 1.4971091768	 0.0262161064	-0.406229
C	 0.0868992171	 0.00024803	 0.0634903448	 0.054314
C	 0.7549151539	-0.5545016373	-1.2150448096	-0.24089
C	 1.3387845673	-1.9130235075	-0.7900719367	-0.111965
C	 2.8665059161	-2.0970038959	-0.8571270518	-0.094047
O	 3.012262192	-1.8698983653	 0.5588252817	-0.333462
C	 1.5652153482	-1.8247830339	 0.7499474421	 0.45682
C	 1.0972503343	-2.9771823988	 1.6184155865	-0.453118
C	 1.0529066562	-0.4366701516	 1.185764068	-0.277737
H	 0.7097639819	 2.0743020015	-0.1127777469	 0.114196
H	-0.8910518228	 1.7489783441	-0.7955680113	 0.111263
H	-0.678646156	 1.8351538174	 0.9575220902	 0.112961
H	-0.8608451325	-0.5396780018	 0.2066075638	 0.069452
H	 0.0564930199	-0.6288784266	-2.0538987261	 0.094741
H	 1.5583664222	 0.1256693487	-1.5270104776	 0.096185
H	 0.7462980746	-2.7601711917	-1.1415605468	 0.069779
H	 3.2037203589	-3.1021239469	-1.1425278213	 0.094194
H	 3.4150543765	-1.3578733927	-1.4550778031	 0.094616
H	 1.528174372	-2.8938647031	 2.6218365492	 0.12528
H	 0.0055657068	-2.973320518	 1.7149553917	 0.112005
H	 1.4037384353	-3.9385457947	 1.1950162374	 0.11508
H	 1.9096387417	 0.2447422307	 1.2336770141	 0.106978
H	 0.5767658808	-0.4431171635	 2.1711729553	 0.089583
