14
0 0
N	 0.0625705989	-3.6352525411	 0.3291770165	-0.335942
C	 0.0457204985	-2.4824522909	 0.1867647618	 0.213629
C	 0.0231064882	-1.1277787667	 0.0187753948	 0.032539
C	-0.0025655803	 0.0707909045	-0.1293578151	 0.112168
C	-0.015387281	 1.5152062361	-0.3137103686	-0.41308
C	 1.3736002493	 2.1380156728	-0.2474850389	 0.040787
C	 1.5269952484	 3.5225088545	 0.2607434023	-0.246043
N	 2.0260249826	 2.3768440772	 1.0421620238	-0.299564
H	-0.4758494413	 1.745263555	-1.2840861189	 0.157427
H	-0.6616532619	 1.9704588537	 0.4489797435	 0.142661
H	 2.0525685445	 1.7826865914	-1.0189270505	 0.11447
H	 2.2961606098	 4.1717941797	-0.1464234587	 0.130521
H	 0.6327014027	 4.0396588621	 0.6007115669	 0.115471
H	 1.3903913516	 2.1669136118	 1.8085082311	 0.234957
