17
0 0
C	-0.1005873478	 1.5892236284	 0.0001683261	-0.441438
C	-0.0056012208	 0.0771376227	-0.0208173833	 0.021485
C	 1.254521413	-0.6277714506	-0.615630549	-0.086828
N	 2.0290940332	-0.1269581017	 0.5946645538	-0.34235
C	 0.727258824	-0.6706441167	 1.1449622447	 0.177425
C	 0.4110393484	-0.6841855439	 2.5502531239	 0.141587
N	 0.1343369208	-0.7346178534	 3.672307248	-0.346099
C	 0.8854304861	-1.9061085291	 0.172458527	 0.094388
O	-0.217130635	-2.6330232326	-0.2647411016	-0.420903
H	 0.8494611004	 2.0455443163	 0.2810952918	 0.148039
H	-0.3907306542	 1.9606386099	-0.9885069518	 0.120437
H	-0.8691636478	 1.913352343	 0.7096082123	 0.128539
H	-0.9423282973	-0.4024639212	-0.3034479301	 0.106414
H	 1.6610765812	-0.5518538364	-1.6231968474	 0.098626
H	 2.7920351743	-0.7775161852	 0.8138109092	 0.217375
H	 1.7405022048	-2.5448770433	 0.433666799	 0.083423
H	-0.4073436433	-3.3274997564	 0.3747867475	 0.299879
