19
0 0
C	 0.0551202775	 1.4739613123	 0.0680121188	-0.501918
C	-0.0091957344	-0.0141565754	-0.0391180789	 0.332754
C	-0.1256257742	-0.8257126194	-1.1584896599	-0.406707
C	-0.0561881849	-2.1634380231	-0.6885448849	 0.315402
C	 0.1068366291	-2.1395792708	 0.6681465131	 0.2496
C	-0.0254058962	-3.5058963687	 1.2610788129	-0.344208
C	 0.1635234405	-4.3513171297	-0.0402443444	-0.154262
N	-0.2700810598	-3.4789727199	-1.1693042478	-0.403216
N	 0.0959956386	-0.8241644331	 1.0740604782	-0.425018
H	 1.0463557107	 1.8328627232	 0.376387045	 0.122875
H	-0.168040115	 1.9251485518	-0.9017068485	 0.135658
H	-0.6717090321	 1.8678997484	 0.789668939	 0.121233
H	-0.2396524357	-0.4720485264	-2.1720118337	 0.083254
H	 0.7171955577	-3.7773444279	 2.0196354527	 0.099439
H	-1.018497828	-3.6777375635	 1.7034292431	 0.10617
H	 1.227470706	-4.613665581	-0.1340872434	 0.094633
H	-0.416295877	-5.2781657808	-0.0254691232	 0.102248
H	 0.233761568	-3.6955689107	-2.0217022386	 0.22214
H	 0.2498658891	-0.4875746753	 2.0083064204	 0.249922
