21
0 0
C	 0.0272593275	 1.5482600447	 0.0614977285	-0.418145
C	-0.0025476272	 0.0142081996	-0.0004468034	 0.243049
C	-1.4537134515	-0.4996052424	 0.0138521996	-0.431617
C	 0.7118143944	-0.5630248897	-1.2427196622	-0.061615
C	 2.182280756	-0.3426042057	-1.4863868078	-0.311361
C	 1.720736811	-1.6118399029	-0.809613609	-0.068726
C	 1.7292618983	-1.5913903144	 0.7028046732	 0.023272
O	 2.132767899	-0.3354604585	 1.2759446643	-0.26689
C	 0.7324283736	-0.6240623725	 1.1855704917	 0.017439
H	 1.0545109871	 1.917083823	 0.1101771103	 0.130039
H	-0.4510626642	 1.9824922455	-0.8228006949	 0.110236
H	-0.5067361058	 1.9172351243	 0.9444258579	 0.107879
H	-2.0100957017	-0.1088028776	-0.844402566	 0.115739
H	-1.4881295542	-1.5933177323	-0.0329511987	 0.116639
H	-1.9769765008	-0.1822744587	 0.922384391	 0.111975
H	 0.0893451843	-0.731259946	-2.1161002112	 0.078234
H	 2.5201519389	-0.4247637897	-2.5140166565	 0.104946
H	 2.7230997705	 0.3718140258	-0.8795897353	 0.136178
H	 1.8208210412	-2.5680255984	-1.3090264521	 0.082608
H	 2.031859994	-2.472151343	 1.262330244	 0.093559
H	 0.2203499295	-0.7061158811	 2.1436673565	 0.086562
