19
0 0
C	 0.0506152309	 1.5600107101	 0.0560876025	-0.41129
C	 0.0103961553	 0.0327522307	 0.0297604761	 0.139068
O	 0.7166987001	-0.5253919423	 1.1370013288	-0.42726
C	-1.423286407	-0.5079618359	-0.0473043984	-0.18525
C	-1.4603965894	-2.0487453173	-0.1127943059	-0.397853
C	-2.8097175401	-2.5884693778	-0.1076914664	 0.34096
C	-3.9419204403	-3.0173331581	-0.0998747043	-0.198763
C	-5.2139500372	-3.5006247511	-0.0925265666	 0.288326
C	-6.3432305479	-3.9290647852	-0.0856768316	-0.559973
H	 1.0838308502	 1.9104695741	 0.125227946	 0.127581
H	-0.4024525502	 1.9853715875	-0.8450115977	 0.12056
H	-0.502273633	 1.9483344182	 0.9208821647	 0.109518
H	 0.5672437035	-0.3231034647	-0.8469409571	 0.090928
H	 0.3295476849	-0.1639558095	 1.9426859034	 0.278517
H	-1.9870218331	-0.1691338781	 0.8319493415	 0.101624
H	-1.9297403682	-0.0877962531	-0.9233644223	 0.111623
H	-0.9349437009	-2.388131649	-1.0160454517	 0.134246
H	-0.890879961	-2.4474765668	 0.7348352717	 0.150008
H	-7.3353671664	-4.3062252615	-0.0802494425	 0.18743
