17
0 0
O	 0.0006620959	 1.3160630798	 0.0669564851	-0.480713
C	 0.0290802315	-0.0575901501	-0.0251429835	 0.282578
C	 0.9098093579	-0.9006186685	-0.9214277883	-0.279924
C	 0.0529397289	-2.1070010866	-0.4192951805	-0.139005
C	 0.4092532228	-2.2601717421	 1.0925315002	-0.300051
C	-0.2855854397	-0.9186167542	 1.2474930097	 0.25805
O	-0.6793207658	-0.232541498	 2.3859805154	-0.47444
C	-1.1001341281	-1.07163089	-0.0087788955	 0.250306
O	-2.45531692	-1.0450174704	-0.1895506499	-0.452117
H	-0.3374849259	 1.5261668034	 0.9495331148	 0.281159
H	 0.7489005254	-0.6926631541	-1.9836800787	 0.100571
H	 1.9849279891	-0.9373265153	-0.7111058888	 0.090065
H	-0.0888603438	-2.984376885	-1.0440904736	 0.082242
H	-0.152417785	-3.0692258172	 1.5681530932	 0.110128
H	 1.4736138739	-2.3417589991	 1.3439828494	 0.086368
H	 0.1137153813	-0.0089779698	 2.888971145	 0.289747
H	-2.6435140386	-0.6145996227	-1.031499084	 0.295038
