20
0 0
C	 0.1815347658	 1.6902155517	-0.0052856924	-0.381272
C	 0.0419966468	 0.1642323286	 0.0148877534	-0.002425
C	 0.7042725548	-0.535822402	-1.1935983477	 0.117567
O	 0.5414232273	 0.2469444077	-2.3575769717	-0.429752
C	 2.160665601	-0.7375293723	-0.7366560191	-0.276365
C	 2.0255166994	-1.0816393889	 0.7532549224	-0.157071
N	 0.748524187	-0.4648257129	 1.1351306915	-0.038724
C	 0.2485677092	-0.608909355	 2.38535229	 0.134366
O	 0.8210131108	-1.1781315561	 3.2943273247	-0.344504
H	 1.230326963	 1.9973410657	-0.0485563613	 0.120263
H	-0.3322531532	 2.1057283093	-0.8750339909	 0.137309
H	-0.2576110701	 2.1166526926	 0.9014481236	 0.116727
H	-1.0214803196	-0.092656966	 0.0654449049	 0.093672
H	 0.2275695345	-1.5204742495	-1.3189844736	 0.077912
H	 0.9262635532	-0.2306282689	-3.0985661338	 0.289375
H	 2.6795781087	-1.5178977941	-1.299345193	 0.10277
H	 2.7069290986	 0.199954441	-0.8800669187	 0.119405
H	 1.9799326494	-2.1620970485	 0.9313322928	 0.123938
H	 2.8453045415	-0.6930502292	 1.3639850329	 0.129311
H	-0.7542378481	-0.1482551533	 2.4949629259	 0.067496
