16
0 0
N	-0.0409361595	 1.3743963541	-0.1246850792	-0.613757
C	-0.0853032271	-0.0274578751	-0.1271568799	 0.224158
C	-1.1098118177	-0.9331274331	-0.0584968734	 0.171128
C	-2.5789586449	-0.6526481785	-0.0266138863	-0.183573
O	-2.9208662106	 0.5395683026	-0.743002935	-0.415251
N	-0.5998681308	-2.2337308109	 0.0252285348	-0.419951
C	 0.6898142019	-2.0873066754	 0.0036214217	 0.423485
O	 1.6246745571	-3.0558368467	 0.0410644737	-0.429743
N	 1.0819725787	-0.7854044218	-0.0897796366	-0.343119
H	 0.4538077395	 1.7481151846	-0.9304719645	 0.236468
H	-0.9947539088	 1.7218108876	-0.1560325032	 0.259086
H	-3.122386752	-1.5271649361	-0.4109773294	 0.110398
H	-2.9421567213	-0.4751800186	 0.993356903	 0.119439
H	-2.6459048829	 0.4000717647	-1.6559568299	 0.280354
H	 1.1415015702	-3.8896802808	 0.0976874855	 0.311959
H	 2.0256108882	-0.4393359764	-0.0538497112	 0.26892
