16
0 0
C	 0.1218716122	 1.474823691	-0.1228176661	-0.393383
C	-0.0890993053	-0.0197912159	 0.1293115149	 0.046041
O	 0.3365196124	-0.8089712489	-0.9943136958	-0.270398
C	 1.6415961104	-1.3138208303	-0.779878424	-0.191857
C	 1.8594293675	-1.3475220489	 0.7325805475	 0.304112
O	 2.7646421548	-1.885004593	 1.3165319636	-0.291512
C	 0.717581033	-0.5493341746	 1.2939874095	 0.264971
N	 0.3918375405	-0.284027317	 2.5010417585	-0.207029
O	 1.2300671088	-0.8392176662	 3.441648795	-0.341473
H	 1.1828310318	 1.7084409252	-0.2580387341	 0.119131
H	-0.4183621179	 1.7793108852	-1.0231072257	 0.130353
H	-0.2497497905	 2.0521843866	 0.7288406471	 0.133256
H	-1.1561154173	-0.2211834368	 0.2671912617	 0.111526
H	 1.720598325	-2.3163078409	-1.2116944373	 0.142783
H	 2.4170832666	-0.6825931843	-1.2438156882	 0.125283
H	 0.832846258	-0.5494256211	 4.2718003735	 0.318195
