21
0 0
C	 0.9469865272	 1.5692854034	 0.0722034665	-0.251289
C	 1.3367569615	 0.2270178731	-0.4718435473	-0.251295
C	-0.0795279033	 0.4470332188	 0.0381073148	-0.157177
C	-0.5165520021	-0.1731688942	 1.255424704	 0.113372
C	-0.883774053	-0.6951167799	 2.2801558595	 0.030761
C	-1.3533045571	-1.3243344557	 3.4970304401	-0.142939
C	-2.626969	-0.7641045948	 4.2138273225	-0.212248
C	-3.0375809467	-2.2236875205	 4.5407181619	-0.217191
C	-2.0818338212	-2.7074398294	 3.4189550679	-0.212226
H	 1.3285019174	 1.8558037056	 1.0448355375	 0.124614
H	 0.8083810121	 2.3909413891	-0.6215382417	 0.115727
H	 1.4682663407	 0.1185096603	-1.5426093172	 0.115728
H	 1.9834044657	-0.3994042723	 0.1307377744	 0.124609
H	-0.8424157349	 0.5370023285	-0.7303131022	 0.105688
H	-0.5333116178	-1.3907727074	 4.2217688464	 0.094662
H	-2.4682586675	-0.0699885596	 5.0420828353	 0.099329
H	-3.3035490049	-0.3032338281	 3.4898339114	 0.110101
H	-2.6888535741	-2.530972797	 5.5310950532	 0.101818
H	-4.0943304594	-2.4831597004	 4.4503576298	 0.098503
H	-2.5987832191	-2.815687346	 2.4622005529	 0.110103
H	-1.4780628235	-3.5997900837	 3.5982881801	 0.09935
