16
0 0
O	-0.2675625263	 1.3020823003	 0.0026185516	-0.411483
C	 0.0306851451	-0.0804679267	-0.0627341802	-0.017197
C	 0.8122652211	-0.4050487228	-1.2744951668	 0.250702
N	 1.4632315577	-0.6411814219	-2.1998710903	-0.319359
C	 0.7515635819	-0.5947990035	 1.186887471	-0.050211
C	-0.0178441577	-0.4551270452	 2.5503137314	-0.285387
C	 0.0362109004	-1.9828773501	 2.6760673168	 0.03888
O	-0.6160195503	-2.5234153863	 1.5200840096	-0.238499
C	 0.7522221707	-2.1226912103	 1.3971289213	 0.011084
H	 0.5626890343	 1.7921949279	 0.0180465539	 0.293944
H	-0.9357884958	-0.5889083664	-0.1310757862	 0.15534
H	 1.7600452427	-0.1739690434	 1.2453647757	 0.092629
H	 0.5711226551	 0.0696780955	 3.305048994	 0.11497
H	-1.0197088152	-0.0238300141	 2.5017761751	 0.128676
H	 0.0573285638	-2.6008766631	 3.5653815097	 0.115118
H	 1.4615329724	-2.86052081	 1.0427243034	 0.120794
