17
0 0
O	-0.0257522847	 1.436785523	 0.2432314941	-0.409943
C	 0.0417059787	 0.0447498068	-0.0134295337	-0.189752
C	-1.3166628255	-0.5536669953	-0.1906576119	 0.38643
O	-2.095629622	-0.7640550653	 0.9996623214	-0.275457
C	-1.8951494266	-1.8792635643	 0.1308327329	-0.078037
C	-2.9246636489	-1.7736639427	-1.0229378735	-0.128135
C	-4.2117198904	-0.9715311465	-0.7222598943	-0.082261
O	-3.5602995375	 0.2821081901	-1.059502422	-0.283452
C	-2.3324076625	-0.3878109817	-1.3681199412	 0.042996
H	-0.5977814043	 1.5584723899	 1.0093499924	 0.297134
H	 0.6239391534	-0.0658473046	-0.9346589178	 0.114736
H	 0.5680474272	-0.4989700402	 0.7863502648	 0.099142
H	-1.4452455859	-2.7672960852	 0.5613784326	 0.109475
H	-2.9567786995	-2.5976718902	-1.7324924382	 0.090293
H	-5.0413159112	-1.1775145091	-1.4079684966	 0.102512
H	-4.5628222206	-0.9863984137	 0.313176804	 0.117601
H	-1.9020414299	-0.114278451	-2.3347180531	 0.086717
