22
0 0
C	-0.6731251213	 1.2460233406	-0.2323391829	-0.381982
C	-0.0356665447	-0.1315770911	-0.1515195556	-0.034888
O	 0.5914850949	-0.2557182739	 1.1094117524	-0.262506
C	 1.1116703175	-1.5429574858	 1.4037401998	 0.122502
C	 2.4066104853	-1.8496009828	 0.6508598987	-0.401105
C	 1.3141847733	-1.5516368221	 2.9182429779	-0.068412
O	 1.7269612583	-2.841744648	 3.3093568103	-0.234175
C	 1.9578622023	-2.9475052302	 4.692821051	-0.223718
H	 0.0854439715	 2.0258648387	-0.1191557734	 0.12584
H	-1.16859599	 1.3816115982	-1.1984717154	 0.112646
H	-1.4145993038	 1.3730943587	 0.5615619385	 0.123989
H	-0.7994167934	-0.9185288026	-0.2719485128	 0.08394
H	 0.6906906343	-0.2601012	-0.9690824191	 0.089088
H	 0.3590246455	-2.3114648092	 1.1603832251	 0.071309
H	 3.1408400511	-1.0568290333	 0.8297543158	 0.116051
H	 2.8199240414	-2.7966472818	 1.0060511739	 0.134966
H	 2.240731033	-1.9299747919	-0.4269409519	 0.111744
H	 2.0680972564	-0.7948603794	 3.1942679515	 0.08988
H	 0.3692895806	-1.2714820837	 3.4098167138	 0.090842
H	 2.2680967966	-3.9753991488	 4.8964732786	 0.125515
H	 2.7527914335	-2.2625094144	 5.0283153542	 0.104291
H	 1.0498254079	-2.7277873072	 5.2765755197	 0.104181
