11
0 0
O	 0.0095044896	-0.0641737648	-0.0909798326	-0.237545
C	-0.0196583732	 1.120242627	-0.0221376813	 0.184521
O	 1.1109438609	 1.8754928778	-0.1535452795	-0.183937
C	 0.9830160963	 3.288463381	-0.0475287741	-0.115542
C	 2.1198002569	 3.7824432927	 0.8833618331	 0.15485
O	 1.9941272657	 4.7249598457	 1.6068513709	-0.20237
C	 1.1083366286	 3.9181879295	-1.3674834284	 0.28396
N	 1.2300781314	 4.4275956817	-2.3969767164	-0.28585
H	-0.9231907915	 1.7318646103	 0.156648534	 0.104751
H	 0.0278431439	 3.5816204183	 0.4047709566	 0.16064
H	 3.0385304714	 3.1681841008	 0.8117720077	 0.136523
