19
0 0
C	-0.3021046454	 1.0834382916	-0.5061461383	-0.242709
N	 0.783753453	 1.3730370893	 0.4437284915	-0.311949
C	 0.373475103	-0.0235658662	 0.2220695929	-0.150188
C	-0.261390632	-0.7215243292	 1.3650069489	 0.395568
C	-0.9593795757	-0.0930563482	 2.5600605832	-0.297619
C	-0.6610409857	-1.439908444	 3.2424100164	-0.009479
C	-1.5141100331	-2.4944702949	 2.5097281769	-0.239321
C	-0.6017899738	-2.1806451089	 1.3383307948	-0.088989
N	 0.5085820358	-1.6914866484	 2.2319945739	-0.204522
H	-1.2842741562	 1.4212222065	-0.1871011072	 0.119
H	-0.1159903508	 1.1811336312	-1.572552175	 0.112476
H	 1.64834941	 1.5677241217	-0.0532957648	 0.23518
H	 1.0384801596	-0.6555162733	-0.3645380917	 0.086613
H	-0.3482076109	 0.717197798	 2.9616493686	 0.129584
H	-2.0033964182	 0.2276160368	 2.474388951	 0.089467
H	-0.4651370196	-1.5062132825	 4.3106319851	 0.082483
H	-1.3232479901	-3.5009876606	 2.8909511074	 0.111465
H	-2.5929363653	-2.3265517486	 2.4210602086	 0.094615
H	-0.3891742047	-2.8006131803	 0.4735546179	 0.088325
