17
0 0
O	-0.0465916793	-0.0738661465	 0.020020622	-0.47075
C	 0.0859256303	 1.1589876855	 0.0071074863	 0.378521
O	 1.0674540286	 1.9167819226	 0.005266148	-0.470758
C	-1.3132842268	 1.9420595135	 0.0092167557	-0.171437
C	-2.3723885188	 1.1020041748	 0.7016109672	-0.179133
N	-3.6075579745	 1.908493055	 0.9065015576	-0.256474
C	-3.5842085976	 3.2199560425	 0.9721146565	 0.162562
N	-2.4790549379	 3.9249296295	 0.8919096808	-0.256471
H	-2.5582612139	 4.9286450364	 0.9570232296	 0.282762
C	-1.1469491467	 3.2916353811	 0.6858149718	-0.179137
H	-1.6198241936	 2.106111053	-1.0316563696	 0.086958
H	-2.6202855365	 0.2284236656	 0.1014699663	 0.160385
H	-2.0256666702	 0.745153997	 1.6760839419	 0.1508
H	-4.5040534823	 1.4518535237	 0.9822301592	 0.282761
H	-4.5240061014	 3.7468668151	 1.1036113409	 0.168224
H	-0.6555218299	 3.1934284258	 1.6584472217	 0.150794
H	-0.5356798394	 3.9531106954	 0.0746174239	 0.160392
