21
0 0
C	-0.1401357774	 1.4063931506	 0.3072023589	-0.390253
C	 0.0722110915	-0.0816424081	-0.0053320475	 0.04927
C	-1.2235261168	-0.8718051756	 0.2180402792	-0.393778
C	 0.5955818328	-0.3158448385	-1.4391883322	-0.230753
C	 1.9755282447	 0.2525825322	-1.6739295498	 0.068437
O	 3.0852166246	-0.4420652043	-1.1169383298	-0.246057
C	 3.0143533874	-0.3570419241	-2.5452686281	-0.056566
C	 2.7881662823	-1.643370612	-3.2700758708	 0.13917
O	 3.0745721766	-1.8039473883	-4.4293104653	-0.244928
H	 0.782850637	 1.9872503687	 0.2191985777	 0.117042
H	-0.8805439639	 1.8470776431	-0.3715530246	 0.113065
H	-0.5098309674	 1.5375766974	 1.3291083636	 0.117583
H	 0.8330333689	-0.4725121865	 0.683576661	 0.092576
H	-2.0139755861	-0.5305676696	-0.4613804869	 0.113749
H	-1.0749078413	-1.9427960879	 0.0453473844	 0.11381
H	-1.5895291512	-0.7446095552	 1.2418305328	 0.114664
H	 0.6014518758	-1.3907519252	-1.6425253872	 0.102058
H	-0.0957941393	 0.1399774502	-2.1616017689	 0.106744
H	 2.0539962602	 1.3368432823	-1.5757490137	 0.106524
H	 3.7390721431	 0.302465385	-3.0214403377	 0.115372
H	 2.3480517088	-2.4526643642	-2.6492646851	 0.092269
