20
0 0
C	 0.2921112736	 0.8807531402	 0.4714853337	-0.256583
O	-0.4054947679	 0.1338063563	-0.514214721	-0.245714
C	 0.4107730174	-0.538957188	-1.4471797743	-0.096833
C	 0.4666641573	-2.0641276238	-1.1641213313	 0.032054
N	-0.8659403122	-2.656763359	-0.9936576496	-0.522501
C	 1.1886192798	-2.8019672906	-2.3337039593	-0.167399
N	 1.3669964132	-4.2328760921	-2.1719973733	-0.504606
C	 1.2331057483	-2.3046327309	 0.0741293329	 0.320134
N	 1.8740630654	-2.4871924954	 1.0187384868	-0.355335
H	 0.9394327755	 0.2484846792	 1.0904009497	 0.143105
H	 0.900186241	 1.6729411082	 0.0118316955	 0.113175
H	-0.4661721447	 1.3436580812	 1.1070305368	 0.133342
H	-0.0449305535	-0.4103343428	-2.4383982045	 0.104577
H	 1.4222734649	-0.1118205313	-1.4814081185	 0.106317
H	-1.3664498882	-2.1218847025	-0.2878629939	 0.250052
H	-1.3831685558	-2.5263468967	-1.8610586804	 0.232771
H	 0.5877418672	-2.6173135589	-3.2345800415	 0.107697
H	 2.1647999424	-2.3352134412	-2.5010055427	 0.120262
H	 2.0316303738	-4.4153219019	-1.4251913701	 0.242738
H	 0.4859977224	-4.6430368701	-1.872925605	 0.242748
