13
0 0
O	 0.3628142803	 0.823455724	-0.8480565494	-0.421744
C	-0.0589024079	 0.1743719969	 0.3162494389	-0.115734
C	-1.4254701186	-0.4500193784	 0.1980973655	 0.343647
N	-1.9234736345	-1.0973131736	 1.257307898	-0.276462
C	-3.1313569716	-1.6158152084	 1.0659121518	 0.081844
N	-3.8542056246	-1.5418624116	-0.0572347515	-0.305016
C	-3.2452912991	-0.877278275	-1.0189288031	 0.377081
F	-3.8929201122	-0.7623374748	-2.1524809712	-0.035653
N	-2.0515857068	-0.3101703878	-0.9734070408	-0.363805
H	-0.3479193482	 0.7239223487	-1.4971609423	 0.300485
H	 0.6435578942	-0.6244816671	 0.6014089046	 0.133617
H	-0.0885550244	 0.8698485878	 1.1697493373	 0.13355
H	-3.5810291767	-2.1527679107	 1.8972674923	 0.14819
