19
0 0
C	-0.0591376088	 1.5574209619	-0.1333593374	-0.357584
C	-0.1394989618	 0.0393711355	-0.2207079691	 0.043107
C	-0.2165256001	-0.7889769834	 1.0337743387	-0.24775
C	-1.4207222219	-0.6721260529	 0.1298357274	-0.276678
C	 1.3353164417	 2.073134169	 0.0564513071	 0.386766
C	 2.0530846521	 2.4193115392	 1.1864865158	-0.29814
C	 3.3288055759	 2.7903056758	 0.7116714206	-0.001961
N	 3.4155557456	 2.6902547449	-0.6112770712	-0.232415
N	 2.1951570117	 2.2515519185	-0.9816573441	-0.244405
H	-0.4974368427	 2.0007925166	-1.0378569152	 0.106393
H	-0.6756730463	 1.901523926	 0.7040415759	 0.115661
H	 0.4378038207	-0.389008185	-1.0360590786	 0.083552
H	 0.3171563914	-1.7321021841	 1.0651230084	 0.115368
H	-0.243254569	-0.2652424181	 1.9838783575	 0.112382
H	-2.2560325843	-0.0704503929	 0.4738462341	 0.111251
H	-1.7111977474	-1.5349491434	-0.4592118623	 0.113537
H	 1.697614677	 2.4060802706	 2.2043462628	 0.096758
H	 4.1837503126	 3.1305194892	 1.2778139303	 0.107099
H	 2.0078139634	 2.1093725425	-1.9601103406	 0.26706
