20
0 0
C	-0.2284064778	 1.3951702079	-0.6694325913	-0.225711
O	-0.2468769438	-0.0061162708	-0.8095743502	-0.23706
C	 0.9122823553	-0.6257762408	-0.3053398011	-0.085426
C	 0.7696423066	-2.1245532576	-0.535067183	 0.117019
C	 0.7352109502	-2.5321963577	-2.0027989419	-0.229851
C	 0.7574322769	-4.0605029344	-2.0921554099	-0.166311
N	 1.7747893289	-4.6677085965	-1.2351912842	-0.265647
C	 2.2331009351	-3.9793620696	-0.2804904157	 0.130216
O	 1.8921828994	-2.7310632078	 0.1314455307	-0.246917
H	-0.1537113703	 1.6976771846	 0.3866807109	 0.108257
H	 0.6129145236	 1.8481979001	-1.2167426938	 0.107947
H	-1.1654836258	 1.7766964408	-1.0814983153	 0.130223
H	 1.8178396846	-0.2567618699	-0.8157951307	 0.093733
H	 1.0354724901	-0.4290970023	 0.7718934085	 0.098955
H	-0.1454943586	-2.4694652753	-0.0345785952	 0.097138
H	-0.1507453927	-2.1046067774	-2.4788730658	 0.12105
H	 1.6168929913	-2.1172926265	-2.5070901915	 0.106233
H	-0.2210810996	-4.4780845057	-1.8189313012	 0.1129
H	 0.9478085986	-4.3843663988	-3.1209812367	 0.111677
H	 3.0234302083	-4.3687247122	 0.3592564076	 0.121572
