15
0 0
O	 0.2211099744	 1.3303942813	-0.3162143913	-0.412682
C	 0.1193303454	-0.0039190186	 0.0849115748	 0.081809
C	-0.1712366561	-0.3159398736	 1.5692740715	-0.106107
O	-1.3257214687	-1.1072134421	 1.2103730426	-0.266707
C	-1.2745724378	-0.6590200285	-0.1694103522	-0.197608
C	-2.3537937794	 0.2388954577	-0.5314472234	 0.586395
C	-3.2694692671	 0.9654678067	-0.8452342522	-0.339479
C	-4.2955613947	 1.7866819173	-1.1937288398	 0.308822
C	-5.2078776482	 2.5142556231	-1.5047405981	-0.564896
H	 1.1489642216	 1.5820488641	-0.3313015675	 0.294635
H	 0.9245786406	-0.6214775238	-0.3293898422	 0.08922
H	 0.56973875	-0.902201195	 2.1230861621	 0.105055
H	-0.445248232	 0.580670222	 2.1394137388	 0.114963
H	-1.2599533337	-1.5161325535	-0.8540438966	 0.113947
H	-6.0093889543	 3.1551538131	-1.7765733566	 0.192633
