19
0 0
C	 0.0359159996	 1.5010759353	 0.1934313662	-0.266598
C	 1.5725476939	 1.3636790067	 0.0235606492	 0.109841
O	 2.21596641	 1.0465373176	 1.2479013012	-0.272853
C	 1.4251872311	 0.1820429128	 2.0673731091	-0.097637
C	 0.6120678975	-0.7989337481	 1.2122997272	 0.084531
O	 1.4657705246	-1.7801589436	 0.6263986282	-0.271398
C	 2.1129650885	-1.1834429682	-0.5058974962	-0.100804
C	 1.2981549909	 0.0661044932	-0.8215909739	-0.051904
C	-0.0098546073	-0.037117617	 0.0136672025	-0.060027
H	-0.3456657746	 1.9530867206	 1.1120978991	 0.102564
H	-0.4077246259	 2.0114068657	-0.6650791252	 0.104162
H	 2.1427894225	 2.1779862427	-0.4265339767	 0.077988
H	 2.1180827596	-0.3630723329	 2.7132726801	 0.117051
H	 0.7500829797	 0.7711326836	 2.705684957	 0.091892
H	-0.1136022911	-1.3313815721	 1.8336494416	 0.081125
H	 3.156216843	-0.9428018442	-0.2650946987	 0.107001
H	 2.0987509126	-1.9090390722	-1.3266542814	 0.100289
H	 1.1672219502	 0.2773277092	-1.8836944788	 0.075012
H	-0.8981352948	-0.5223599691	-0.3932866404	 0.069768
