16
0 0
C	 0.0513257855	 1.4817503545	 0.3926629607	-0.503602
C	 0.0001898498	 0.0394077594	 0.0627835558	 0.218928
C	-0.9554709894	-0.8126263016	-0.3859913071	 0.260134
O	-2.2422829918	-0.5300003626	-0.6739189905	-0.433824
N	-0.4382728527	-2.0875332813	-0.5279638374	-0.416882
C	 0.8026546051	-1.9668886404	-0.1647188137	 0.366026
C	 1.803996596	-3.0767871466	-0.1179081452	-0.142159
O	 1.2630503525	-4.2672080021	-0.6332869399	-0.420102
O	 1.1523811394	-0.7274306567	 0.20559163	-0.20995
H	 0.7787056327	 2.0191383931	-0.2270072545	 0.138652
H	-0.9342196704	 1.9190928212	 0.2161045858	 0.151684
H	 0.3176883461	 1.6545077974	 1.4420146756	 0.13838
H	-2.6511125725	-1.3499693729	-0.9738649213	 0.306615
H	 2.6941634063	-2.7894538409	-0.6963573387	 0.126067
H	 2.1390385406	-3.2124784743	 0.9238216997	 0.119677
H	 0.3173441727	-4.1136750562	-0.7588510893	 0.300358
