18
0 0
C	-0.0185195713	 1.5762947774	-0.2548541037	-0.505629
C	 0.0448277868	 0.094809783	-0.0372486702	 0.336264
C	 0.5843744152	-0.888447004	-1.0062337096	-0.077728
C	 0.7570126115	-2.1278152875	-0.1118319813	-0.069913
C	 1.391854014	-1.5246925026	 1.2306259566	-0.250858
C	 0.2026848572	-0.5296983126	 1.3651246671	-0.085025
C	-0.8160960537	-1.4475630353	 1.5062186595	-0.076184
C	-0.8860564898	-1.9580803866	 0.0999794264	-0.033098
N	-0.8973491338	-0.7724670737	-0.8213132241	-0.182984
H	 0.9124235497	 2.0569398769	 0.0649231575	 0.11832
H	-0.1811292256	 1.8028530107	-1.3128310472	 0.124933
H	-0.8405084006	 2.016724065	 0.3188534118	 0.126749
H	 1.0806862735	-0.6628930312	-1.9444137547	 0.089454
H	 1.1959795023	-3.0252146754	-0.5546835323	 0.074318
H	 1.4727273765	-2.2469941224	 2.0453042729	 0.11121
H	 2.3714038965	-1.0748618526	 1.0332413802	 0.106086
H	-0.8222656932	-2.1611048818	 2.329137879	 0.110495
H	-1.5505683352	-2.7706444974	-0.190853618	 0.08359
