13
0 0
C	 0.0113110798	 1.4818892503	 0.0153913191	-0.491048
C	-0.0043782378	-0.0080110759	-0.0075568089	 0.25253
C	-0.1158155539	-0.8648165167	-1.0620628287	-0.096229
O	-0.0807887309	-2.1443739798	-0.5907399762	-0.134973
C	 0.050645744	-1.9816033357	 0.7318247994	 0.505578
N	 0.1028716704	-0.7643438286	 1.1524738671	-0.318474
N	 0.1191311526	-3.1898569888	 1.536639472	 0.347687
O	 0.0523444933	-4.2516784763	 0.9335123576	-0.345965
O	 0.2370752071	-3.0345223241	 2.739838527	-0.331826
H	 0.9438454022	 1.8513353571	 0.45286107	 0.154618
H	-0.0845703952	 1.8897513593	-0.9935276948	 0.134119
H	-0.8109808431	 1.8671145695	 0.6260578521	 0.154624
H	-0.2196816784	-0.7508380304	-2.1276151356	 0.16936
