15
0 0
O	-0.110243502	-0.0727342518	 0.1282105932	-0.320208
C	-0.0521959414	 1.1315224853	 0.0283123955	 0.152329
N	 1.1132469231	 1.8460702799	-0.1198013266	-0.097458
C	 1.1181347808	 3.3055725738	-0.1120589146	-0.29401
C	 2.1988303845	 3.9043929141	-1.0180910885	 0.408881
O	 2.0856228104	 4.9967204841	-1.5301818277	-0.353434
N	 3.3214055698	 3.126050761	-1.1348896442	-0.34386
C	 3.4264737776	 1.8289532904	-0.6128823257	-0.074482
C	 2.3532551421	 1.1922170163	-0.1374310001	-0.02182
H	-0.9391111865	 1.7924879842	 0.0465207024	 0.084657
H	 0.1529909273	 3.6853998893	-0.4493094581	 0.155956
H	 1.2977236119	 3.6924109115	 0.9030917427	 0.142746
H	 4.081254794	 3.5237583189	-1.6661153853	 0.264255
H	 4.4108882923	 1.3846826469	-0.6251873561	 0.138607
H	 2.3596191862	 0.177923756	 0.2305636629	 0.15784
