17
0 0
O	-0.1031814177	 1.4183652086	-0.1643277491	-0.423222
C	-0.0137843545	 0.0022912778	-0.0961633601	-0.074312
C	-1.4216689308	-0.5443614459	 0.1056349808	-0.18852
C	-1.4501241639	-2.0585975775	 0.1905916596	 0.159396
C	-2.821279519	-2.7669173197	 0.1133372228	-0.298294
C	-2.2235646205	-3.4790905848	-1.1164717404	-0.057282
O	-1.0153147862	-2.6953424247	-1.0399264256	-0.294842
H	 0.7711857536	 1.7632367744	-0.3666491368	 0.285082
H	 0.4081646695	-0.4219741829	-1.0186035176	 0.10834
H	 0.6317163701	-0.3160152526	 0.7396094095	 0.080584
H	-1.8437942704	-0.1240857837	 1.0276129631	 0.103796
H	-2.0542312293	-0.2115184793	-0.7253746227	 0.105257
H	-0.8294562269	-2.4025788733	 1.0319562291	 0.069583
H	-3.0853132035	-3.4022909695	 0.9597438764	 0.10927
H	-3.6543526842	-2.0963925544	-0.1079628734	 0.111319
H	-2.0240006096	-4.550057154	-0.9812150678	 0.099494
H	-2.7462998765	-3.3360097586	-2.0693527377	 0.10435
