11
0 0
N	-0.0490160786	 1.3162968197	-0.0972668424	-0.471574
C	 0.0040587245	 0.0576638022	 0.0429823882	 0.374493
N	 1.2237056956	-0.6650778769	 0.1557439352	-0.277234
C	 1.1605915444	-1.9188790334	 0.2930240345	 0.122052
O	 0.0131256672	-2.6683757175	 0.3456685249	-0.208529
C	-1.1344524886	-1.9256965191	 0.2331179443	 0.311274
N	-1.2079832735	-0.670096102	 0.0920490705	-0.271298
C	-2.3096880551	-2.7555996136	 0.2943883993	 0.299859
N	-3.2485501592	-3.4263766272	 0.3441978844	-0.29315
H	 0.9029910422	 1.6864047167	-0.1128178577	 0.241438
H	 2.0349855811	-2.5550890691	 0.3868180087	 0.17267
