21
0 0
C	 0.1479927649	 1.4586656086	-0.3646191434	-0.418999
C	-0.1074955207	 0.0641444562	 0.1480897374	 0.077479
O	 1.0122744263	-0.8240909468	 0.2420212885	-0.269688
C	 0.333539179	-0.4554951542	 1.4531601877	 0.066687
C	 1.1300965918	 0.322035589	 2.4744562894	-0.255989
C	 2.057287401	-0.5931926002	 3.2619356773	 0.172342
C	 2.7437741699	-0.0261650685	 4.5242576882	-0.302727
C	 2.0113476919	-1.1660668956	 5.2596241241	-0.057208
O	 1.3240811001	-1.5627031941	 4.0550307492	-0.296783
H	 1.0311955049	 1.9091026795	 0.0923171588	 0.125598
H	 0.3042000137	 1.4369951707	-1.4483042463	 0.129918
H	-0.7161987143	 2.1018534089	-0.1651488702	 0.121197
H	-0.9950191602	-0.4080196381	-0.2802663578	 0.085528
H	-0.2515377065	-1.2673216382	 1.8881533777	 0.106262
H	 1.7304645042	 1.0970050899	 1.9868400646	 0.102567
H	 0.4422695122	 0.8150964115	 3.1736991729	 0.099331
H	 2.7430432512	-1.1025706662	 2.5716196832	 0.090265
H	 3.8337930881	-0.0623540801	 4.5380294722	 0.111445
H	 2.4135304291	 0.9787575263	 4.7973626416	 0.107594
H	 2.6605547266	-1.9651694517	 5.6398061692	 0.102011
H	 1.3141596666	-0.871783837	 6.0529061158	 0.103174
