23
0 0
C	-0.0639548416	 1.5344247546	 0.1011240861	-0.392013
C	-0.0473479389	 0.0109639737	-0.0272645245	-0.169195
C	 0.745666939	-0.5095266343	-1.2484046949	-0.154282
C	 2.1481660955	-0.08798131	-1.2049176288	 0.076042
C	 3.314837452	 0.2099037035	-1.1307253063	 0.042371
C	 4.715751113	 0.6056886225	-1.0625746685	-0.50007
C	 0.6679600983	-2.0610629885	-1.3431604664	 0.133214
C	 1.1987978972	-2.6002883097	-2.6716521206	-0.408412
O	 1.3166312444	-2.668920489	-0.2359935123	-0.435113
H	 0.9498186603	 1.9323334486	 0.2046013424	 0.125755
H	-0.517496558	 2.0038131757	-0.779519802	 0.109353
H	-0.6410060964	 1.8455763503	 0.9773978628	 0.111491
H	 0.3754246425	-0.4463585423	 0.872627457	 0.114813
H	-1.0747229129	-0.3638127435	-0.1153293435	 0.092271
H	 0.2829559204	-0.0998367035	-2.1581535864	 0.093244
H	 5.3504127793	-0.0666133067	-1.6502848403	 0.148548
H	 4.8586547252	 1.6193713558	-1.4528069394	 0.151274
H	 5.0854326486	 0.593227361	-0.0313741761	 0.149259
H	-0.3874113287	-2.3398966556	-1.2390575768	 0.082806
H	 2.240686786	-2.298922865	-2.8230239619	 0.119557
H	 1.1499047274	-3.6923276245	-2.6740711765	 0.121449
H	 0.6108686377	-2.2233259794	-3.515585752	 0.109123
H	 2.2227992197	-2.3336879636	-0.2300813112	 0.278515
