19
0 0
O	-0.1600071584	 0.1176952502	 0.6372643605	-0.321448
C	-0.1168655194	 1.2588287704	 0.2567070124	 0.381558
C	-1.2869724686	 2.1109113418	-0.2399199455	-0.323613
C	-0.6542073433	 3.4507940874	-0.6636685076	-0.221543
C	 0.6397420781	 3.5469426401	 0.1796362136	-0.294556
C	 1.1639903928	 2.1220405443	 0.1906550007	 0.368302
C	 2.357499254	 1.6425816327	 1.0283495529	-0.367207
C	 2.9479086384	 1.1864240682	-0.3194789139	-0.06591
O	 1.8495478692	 1.7794891685	-1.0548488787	-0.330408
H	-1.8400018125	 1.5948828519	-1.0287559302	 0.135574
H	-1.9798667532	 2.2349527064	 0.602003594	 0.133281
H	-0.3885995762	 3.4208332862	-1.7246386259	 0.126186
H	-1.3195726133	 4.3036190802	-0.5132062175	 0.103112
H	 1.3722251412	 4.2490760021	-0.2254202236	 0.110796
H	 0.4047901396	 3.8511158097	 1.2085570824	 0.10415
H	 2.908481458	 2.4412875243	 1.5276571286	 0.109942
H	 2.1192590814	 0.8468928761	 1.735044111	 0.129187
H	 3.9069334095	 1.6269667357	-0.612934288	 0.105763
H	 2.9882598228	 0.1007945437	-0.4597990555	 0.116834
