21
0 0
C	-0.2412976249	 1.5621741202	 0.0712365733	-0.494126
C	 0.0066715987	 0.0777753566	 0.0150891815	 0.341097
C	 0.0768024092	-0.5867686562	-1.1434995366	-0.143158
C	 0.258435667	-2.0727749289	-1.3661507714	-0.270556
C	 1.0979119351	-2.8891163034	-0.3579174697	-0.202497
C	 0.8907083264	-2.5481576265	 1.1159265414	 0.112148
C	-0.4940742525	-1.9872519716	 1.5035669412	-0.284774
C	 0.206997198	-0.6165481271	 1.3468010833	 0.008349
O	 1.5059928297	-1.2702198362	 1.4236411144	-0.289418
H	 0.5920309478	 2.0837063202	 0.5599091119	 0.129494
H	-0.372358458	 1.9899770925	-0.9261688952	 0.118782
H	-1.1390435628	 1.7943833903	 0.6593953985	 0.120812
H	-0.0639657723	-0.0136438159	-2.0589156326	 0.079677
H	-0.7434209002	-2.5237509484	-1.4362626931	 0.113743
H	 0.6936146053	-2.2202189797	-2.3613670067	 0.104031
H	 0.8917566824	-3.9547677813	-0.5203378533	 0.090434
H	 2.1650916879	-2.7397571664	-0.558717116	 0.114851
H	 1.2966291966	-3.3412412931	 1.7538536121	 0.071867
H	-1.3441805676	-2.203252511	 0.855398807	 0.105615
H	-0.7559469708	-2.2014297723	 2.541204912	 0.106113
H	 0.0798179551	 0.0883527981	 2.1749088581	 0.067517
