20
0 0
C	 0.0248173623	 1.2056727529	-0.3802797541	-0.2322
O	-0.0974963782	 0.0733532729	 0.4596858345	-0.240295
C	-1.310518754	-0.5927809191	 0.2990011524	 0.035932
C	-1.4388028956	-1.7090938153	-0.736629018	-0.082438
C	-0.3098223808	-2.0493302945	-1.6845519091	-0.419088
C	-1.3813885132	-2.0306544685	 0.7390602848	 0.329219
C	-0.1855450716	-2.7033008808	 1.3711864889	-0.449326
O	-2.6231995978	-2.4603640008	 1.2457063671	-0.465175
H	 0.9995277991	 1.6550841908	-0.1755393955	 0.125698
H	-0.0321071033	 0.9344688421	-1.4433299245	 0.112282
H	-0.7604203538	 1.9472167365	-0.1694309686	 0.107484
H	-2.1942592191	 0.0212552282	 0.4812511067	 0.082233
H	-2.4380004118	-1.8153900519	-1.1501469447	 0.094218
H	 0.6567945996	-1.7295606157	-1.287972039	 0.128752
H	-0.258520895	-3.1271162228	-1.8734816536	 0.119354
H	-0.4523439469	-1.5524124938	-2.650118177	 0.114994
H	 0.7535488285	-2.2990543908	 0.9913136446	 0.134998
H	-0.1935256336	-2.5418741771	 2.4563364473	 0.106288
H	-0.2131299387	-3.7826323536	 1.1910546564	 0.121205
H	-2.6609528162	-2.2114434487	 2.1766725514	 0.275867
