18
0 0
C	 0.1889369462	 1.4375015152	 0.0070723725	-0.384506
C	-0.0060710368	-0.0813591426	 0.0010889961	-0.192783
C	-1.4777257415	-0.4593421198	 0.0129607341	-0.041205
O	-1.5620013034	-1.8989283877	 0.0062101425	-0.282304
C	-2.8170042539	-2.4002708443	 0.0167484986	 0.542582
O	-3.8289147461	-1.7591842846	 0.0302162887	-0.354078
N	-2.7119708925	-3.7939469069	 0.0076157055	-0.394314
C	-3.7513713052	-4.7148778376	 0.0123813906	 0.165442
O	-4.9253643395	-4.4712143606	 0.0252648919	-0.253465
H	 1.2518896427	 1.6932540143	-0.0015117898	 0.12269
H	-0.2728745133	 1.902570018	-0.8703943366	 0.1236
H	-0.2564133881	 1.8934871661	 0.8977160531	 0.123604
H	 0.4667463414	-0.520513308	-0.8848880627	 0.109665
H	 0.4832357629	-0.5295577046	 0.8734800666	 0.109664
H	-1.9893732642	-0.0779468161	 0.9027645903	 0.126331
H	-2.0059362866	-0.0687000033	-0.8630645041	 0.126286
H	-1.7707236208	-4.1579436857	-0.0039528466	 0.265484
H	-3.3388760113	-5.7442130618	 0.0022293292	 0.087307
