16
0 0
O	-0.0969865202	 1.4112049326	 0.0023321311	-0.482042
C	 0.0245678529	 0.0389566718	 0.0023575224	 0.420599
C	 0.692806267	-0.8659500656	 1.1195711398	-0.170071
C	-0.5732203889	-1.7763337989	 1.0839490851	-0.000399
C	-1.2519513377	-0.8678755659	 0.0137595669	-0.12119
C	-0.5912625673	-1.778011803	-1.0662736647	-0.000435
C	 0.67398871	-0.8676680922	-1.1245217315	-0.170014
C	 1.2787820207	-1.7709468004	-0.0067749802	-0.006744
N	 0.0405932675	-2.6715470228	 0.0043240098	-0.180101
H	 0.7847970847	 1.8015161045	-0.0036998493	 0.281947
H	 1.2107208451	-0.5053428374	 2.0074994178	 0.067272
H	-1.0601427357	-2.2412439782	 1.9408344187	 0.073641
H	-2.2731107513	-0.4926773112	 0.0220367213	 0.074773
H	-1.0924804114	-2.2442878078	-1.9141243033	 0.073647
H	 1.176954027	-0.5084667783	-2.0215589152	 0.067287
H	 2.2662733074	-2.2323628371	-0.0146735287	 0.071829
