17
0 0
C	 0.4419002033	 1.2087281029	 0.7178363842	-0.474742
C	 0.1694005172	-0.1479875289	 0.1673273032	 0.403037
N	-0.6027580105	-0.442431537	-0.7926421826	-0.29246
C	-0.5201104176	-1.8944672793	-0.9845947998	-0.196701
C	 0.3835594828	-2.3910174944	 0.1766921423	-0.013233
O	 0.8567080519	-1.1683528532	 0.7858398807	-0.277134
C	-0.3617489228	-3.2819426354	 1.1765158514	 0.365308
N	-0.2567772348	-2.9056144977	 2.4741628066	-0.518321
O	-0.9726859939	-4.2575705361	 0.7851444881	-0.364557
H	 1.5103873061	 1.4367641744	 0.6519362922	 0.147878
H	-0.126165781	 1.9501026611	 0.1572941805	 0.158181
H	 0.162813816	 1.2569667969	 1.7754015659	 0.14024
H	-1.5081761386	-2.359856581	-0.9484760158	 0.142612
H	-0.0903459004	-2.1125212392	-1.9675074353	 0.120891
H	 1.2530328641	-2.9536202588	-0.1740906474	 0.124089
H	 0.2511422796	-2.0747411567	 2.7231395934	 0.269885
H	-0.7207270616	-3.4527866676	 3.1796715125	 0.265027
