11
0 0
N	 0.3666627031	 0.5914847994	-1.0090564511	-0.528875
C	-0.091796865	 0.1926248319	 0.2026270182	 0.325843
O	 0.3871430671	 0.4795705567	 1.277184278	-0.335397
C	-1.3091724428	-0.6814904128	 0.0781419823	 0.37332
N	-1.9110386534	-1.0560411998	-1.0152082884	-0.326358
C	-2.9326601198	-1.8233021815	-0.5195246485	 0.038799
N	-2.9650584422	-1.9187277268	 0.7834567747	-0.094297
O	-1.8745882514	-1.1524228269	 1.18809847	-0.173235
H	 1.1799372662	 1.1825650368	-1.0477009244	 0.275802
H	-0.0973914065	 0.3030361502	-1.8545691065	 0.285537
H	-3.6663951154	-2.3197689372	-1.1371742743	 0.158861
