18
0 0
O	-0.072629706	 1.3973684883	-0.0193473137	-0.439481
C	-0.0275701361	-0.016733184	 0.0126868288	 0.13045
C	 0.501334162	-0.6110052555	 1.3643055856	-0.296743
C	-0.7903939912	-1.3301043572	 1.8267244881	 0.222616
C	-1.2362681786	-2.0333630389	 0.5022801656	-0.266064
C	-1.4611486692	-0.5672194721	 0.0408337394	-0.044682
C	-1.8907080583	-0.2666759121	 1.5046699981	-0.254918
C	-0.7511246875	-2.0316425545	 3.0901254278	 0.156839
N	-0.7232539484	-2.595432161	 4.099601996	-0.345957
H	 0.8298530267	 1.7310554593	-0.0206980018	 0.286734
H	 0.5345621796	-0.4056296181	-0.8473017847	 0.07158
H	 1.3341685616	-1.307387249	 1.2392925645	 0.113868
H	 0.8019621886	 0.1833334423	 2.0518865502	 0.116859
H	-0.490389906	-2.6420089492	-0.0162451656	 0.106169
H	-2.1684083515	-2.5881296318	 0.6184982338	 0.121644
H	-2.0950515364	-0.3186325215	-0.8080499585	 0.080909
H	-2.8923949648	-0.6317857291	 1.7356112693	 0.116207
H	-1.7421857645	 0.7444702541	 1.884645027	 0.123971
