17
0 0
O	 0.1592539139	 1.3260839368	-0.1928446266	-0.439119
C	 0.0199620085	-0.0709544482	 0.01348057	 0.147702
C	 0.7471493669	-0.4959415886	 1.31855569	-0.266908
C	-0.2168174361	-0.3031127926	 2.5067715595	-0.044209
O	-1.2009411122	 0.7303969651	 2.1612650589	-0.310472
C	-2.0185225389	-0.2762123182	 1.4725601349	-0.044209
C	-1.4828983197	-0.4626470956	 0.038467311	-0.266908
C	-1.3550561762	-1.3224009982	 2.376355141	 0.434613
O	-1.6186398381	-2.4015111335	 2.8074774935	-0.298609
H	-0.2704358906	 1.741741197	 0.5665320208	 0.28521
H	 0.5061100028	-0.5406400068	-0.8456564425	 0.08932
H	 1.0751005189	-1.5415181617	 1.2804489714	 0.119615
H	 1.63798078	 0.1285816809	 1.4242188655	 0.12578
H	 0.2579755232	-0.1288461521	 3.4740411867	 0.111399
H	-3.0890496993	-0.0788726701	 1.5527869988	 0.111399
H	-2.0091469143	 0.1830325404	-0.6693001255	 0.12578
H	-1.638789676	-1.5010002544	-0.2773729318	 0.119615
