17
0 0
C	 0.1055453962	-1.2353786002	 0.0747090874	-0.357415
C	 0.0534874771	-0.0355963777	 0.008490065	 0.174978
C	-0.0477467841	 1.401896809	-0.0521407481	 0.160881
C	-1.2138276428	 2.1086563604	 0.6999423101	-0.216867
N	-1.3854030552	 3.1242548284	-0.3910357364	-0.151954
C	-0.2987990098	 4.1631275373	-0.3025689048	-0.185577
C	 0.738966264	 3.203568403	-0.925525514	-0.007181
N	 1.2348220561	 2.1519213628	-0.0122692216	-0.353307
C	-0.4670130383	 2.2911376826	-1.2765726868	-0.059941
H	 0.1636164988	-2.2945119417	 0.1262559686	 0.188557
H	-2.1057910142	 1.4776965216	 0.7626353842	 0.118316
H	-0.9899523177	 2.5154767613	 1.6922446076	 0.099625
H	-0.5472644858	 5.0039510615	-0.9595601554	 0.11079
H	-0.1011117319	 4.5469264048	 0.7046344314	 0.097043
H	 1.4869169862	 3.5945337085	-1.6191508932	 0.079411
H	 1.5386383384	 2.4553434104	 0.910700607	 0.212764
H	-0.7987051868	 1.9454948781	-2.2524973508	 0.089875
