17
0 0
C	-0.3480315101	 1.4520085697	-0.0859307071	-0.430573
C	-0.0302491264	-0.019525992	 0.0521255708	-0.073369
C	 1.3451372915	-0.6121676521	-0.1796875028	-0.020249
O	 2.4469859503	 0.2758248579	-0.1886896475	-0.210135
C	 2.6620142671	 0.8093039596	 1.0549529937	 0.42562
O	 3.5419062093	 1.5881714724	 1.2669573458	-0.326331
C	 1.6226501877	 0.2604027117	 2.0371655104	-0.45649
C	 0.7305203345	-0.6365739896	 1.2013675638	 0.358343
O	 0.1694918123	-1.7753570443	 1.7708327633	-0.46637
H	 0.5006318022	 2.0913604657	 0.1695467716	 0.139739
H	-0.6279706461	 1.6851015096	-1.1178542936	 0.132289
H	-1.1858998238	 1.730403238	 0.5612093443	 0.129492
H	-0.8145639403	-0.6895505599	-0.2918547348	 0.110296
H	 1.4997898793	-1.4825620186	-0.8048246953	 0.117254
H	 2.1391259722	-0.3115375709	 2.8162070139	 0.135881
H	 1.1145080973	 1.0919001893	 2.5323631272	 0.150656
H	 0.8821087329	-2.3624468666	 2.0500578462	 0.283947
