22
0 0
C	 0.3036902673	 1.6369930946	 0.1981646078	-0.388792
C	-0.1095695945	 0.1845573039	-0.0755189292	-0.238987
C	 0.603485873	-0.4386538012	-1.2686542809	 0.344916
C	 0.3338053269	 0.2234532449	-2.6075009276	-0.4462
C	 1.9258529565	-1.1010550077	-1.0466528193	-0.296419
N	 0.7439503162	-1.8996522061	-1.3689585748	-0.135482
C	 0.2119344469	-2.7905280143	-0.3540539081	-0.232295
C	 0.6402911152	-4.2214926683	-0.6509747635	 0.156329
O	 0.7582461595	-5.0773971266	 0.185912293	-0.240627
H	 1.3831944445	 1.7130840283	 0.3655261911	 0.120032
H	 0.0475958276	 2.2974908594	-0.6351164331	 0.123171
H	-0.2024861289	 2.0199458113	 1.089384127	 0.11662
H	 0.083025115	-0.4098498537	 0.8225543723	 0.100184
H	-1.1937207865	 0.1426852682	-0.2484567366	 0.099433
H	 0.72222291	 1.2463814845	-2.6356521458	 0.119213
H	 0.8053508188	-0.3475433916	-3.4103521978	 0.126305
H	-0.7427206556	 0.2664481086	-2.8103059705	 0.114967
H	 2.702048109	-1.0671855749	-1.8074013613	 0.113297
H	 2.2992495443	-1.143595527	-0.0233999681	 0.108653
H	 0.4901194863	-2.5622323196	 0.6850547158	 0.116176
H	-0.8870304126	-2.7761965662	-0.408378502	 0.131319
H	 0.8238913412	-4.4154620564	-1.7308944584	 0.088188
