18
0 0
C	-0.4488083573	 1.3527762464	 0.4507510819	-0.318622
N	-0.0088337508	-0.0131540178	 0.2081372735	-0.065994
C	 1.3338337714	-0.2226496412	-0.3188007863	-0.262485
C	 0.9877744532	-0.6334382158	 1.072293833	 0.033773
C	 1.6266983344	 0.0766690072	 2.2644509134	-0.427901
C	 0.7869180858	 0.0583755667	 3.4547936646	 0.40002
C	 0.0803610328	 0.0279158168	 4.4369991924	-0.260962
C	-0.7135121846	-0.0051922127	 5.5417773847	 0.292843
C	-1.4178299048	-0.03473312	 6.5222666411	-0.549628
H	 0.3578000674	 2.0588869819	 0.7049359317	 0.097353
H	-0.9394862123	 1.7242101585	-0.4542083073	 0.127021
H	-1.1797306788	 1.3584044241	 1.2645704105	 0.138132
H	 1.4340871883	-0.9579203515	-1.1130751228	 0.11737
H	 1.980416017	 0.6495056765	-0.4260346164	 0.103719
H	 0.784509036	-1.6845767451	 1.2695660531	 0.103298
H	 2.5804769538	-0.4207634965	 2.4873195123	 0.143855
H	 1.8818322771	 1.1111297376	 2.0086848422	 0.137574
H	-2.0378094485	-0.062199105	 7.3835597882	 0.190633
