18
0 0
O	-0.0412505554	-0.0348155798	 0.4035582314	-0.337276
C	 0.0107428745	 1.1687118751	 0.2615500478	 0.140134
N	 1.1309275663	 1.8717105236	-0.0558360927	-0.033019
C	 2.4600818006	 1.258315769	-0.1340121492	-0.18459
C	 3.381018426	 2.3304839435	 0.4793458217	-0.236574
C	 2.7003802288	 3.649093378	 0.1253176879	 0.114118
O	 2.8850232537	 4.0392801264	-1.2551908559	-0.294102
C	 1.4759300488	 3.9080405728	-1.5386941928	-0.089608
C	 1.2056145973	 3.314776843	-0.1354383294	-0.058642
H	-0.8699039023	 1.8315776057	 0.3825035731	 0.069489
H	 2.444941108	 0.3094741543	 0.4029052604	 0.145681
H	 2.7319013886	 1.0569174428	-1.1768315734	 0.125061
H	 3.416691217	 2.223704047	 1.5689688235	 0.113525
H	 4.4021005877	 2.2888826174	 0.0937540895	 0.123803
H	 2.9314507801	 4.4708332697	 0.8104432912	 0.083813
H	 1.0036203242	 4.8828409808	-1.7153378899	 0.10609
H	 1.2770793058	 3.2440038349	-2.3870648128	 0.11348
H	 0.4248713803	 3.7905731959	 0.4589087197	 0.098617
