21
0 0
C	-0.0463052978	 1.3992354116	-0.4577186128	-0.416042
C	 0.0722836032	-0.008552219	 0.1070999618	-0.082809
C	 1.1510349682	-0.939609671	-0.4832815174	-0.083287
O	 1.7401523639	-1.1740821912	 0.8112386121	-0.320266
C	 0.8189099298	-0.2559901899	 1.4587754741	 0.375365
C	 1.5737346338	 0.9016012768	 2.0976716091	-0.441541
C	-0.0468424675	-0.9538928727	 2.4898978004	 0.048134
C	-0.1034731483	-2.4132611277	 2.6162194841	-0.178921
O	 0.6270165404	-1.6157077664	 3.5565953943	-0.245816
H	 0.9241266815	 1.9016257425	-0.5104598373	 0.123145
H	-0.457861875	 1.3681112233	-1.4724237815	 0.120174
H	-0.7143464846	 2.0200570578	 0.1485398661	 0.120593
H	-0.913866536	-0.483359939	 0.1186352894	 0.078496
H	 0.7957105294	-1.8660798256	-0.949886595	 0.100425
H	 1.8582219937	-0.4492456802	-1.1659096039	 0.098934
H	 2.2267235544	 1.3959672102	 1.3750149044	 0.117676
H	 0.8834636047	 1.6440020243	 2.5127944714	 0.113135
H	 2.1897382389	 0.5126983395	 2.9131437087	 0.146495
H	-0.9167445355	-0.3684348245	 2.8008009755	 0.088207
H	-1.0026121488	-2.8872668776	 3.0079645166	 0.107993
H	 0.5131114916	-3.0179160013	 1.9567434299	 0.129909
