15
0 0
C	-0.0274571383	 1.5191460276	 0.0917074989	-0.175191
O	 1.2959515919	 1.9489614302	-0.2295840397	-0.272876
C	 2.1255697072	 0.8502583932	-0.6090120557	-0.175191
C	 1.2840400556	-0.3724687898	-0.376895525	 0.215467
C	 1.5272828024	-1.7345881616	-0.4988126623	-0.082346
N	 0.593951201	-2.6542322989	-0.2324959251	-0.199005
N	-0.618642556	-2.2775119755	 0.1621522694	-0.199005
C	-0.9066564688	-0.9784285787	 0.2933320551	-0.082346
C	 0.0245380653	 0.0188246623	 0.0330193237	 0.215467
H	-0.3005229579	 1.8955827328	 1.0866675295	 0.128634
H	-0.7480491558	 1.9335497255	-0.6293206552	 0.124402
H	 2.4273513606	 0.9470380412	-1.6627797782	 0.124402
H	 3.0398093677	 0.8578311636	-0.0004699506	 0.128634
H	 2.48798728	-2.1308590096	-0.8151674036	 0.124478
H	-1.9198961442	-0.7614479766	 0.6194129948	 0.124478
