15
0 0
C	 0.0420769383	-1.2544093066	-0.086771936	-0.481394
C	 0.0053995374	-0.0515691363	-0.0308245125	 0.252721
C	-0.0259918445	 1.3568727262	 0.0336286894	-0.095972
C	-1.0989240979	 2.2311501721	 0.1862120696	 0.289276
C	-2.5227923047	 2.7404468519	 0.3614280327	-0.386718
C	-1.8654792393	 4.1823981505	 0.3536325167	-0.16728
N	-0.5918052593	 3.4666211449	 0.1851556126	 0.081778
N	 0.7384992028	 3.5578827763	 0.0466225755	-0.293416
C	 1.0821542479	 2.2672168782	-0.0458338133	-0.071289
H	 0.0726122097	-2.3141983607	-0.1359544468	 0.185324
H	-3.2018045937	 2.5479977754	-0.471671817	 0.140161
H	-3.0121464322	 2.4706418671	 1.2994024347	 0.140171
H	-2.1299238691	 4.8208132791	-0.4924324447	 0.141244
H	-1.9379640674	 4.7420789293	 1.2890110304	 0.141249
H	 2.1202723818	 1.9962223525	-0.1692951812	 0.124146
