20
0 0
O	 0.0629454894	 1.4726430405	-0.1158003776	-0.43431
C	 0.056401956	 0.0758483003	-0.0149455151	 0.143399
C	-0.0919643313	-0.6196481722	 1.3731325558	-0.08472
C	-1.5314812584	-0.0369613603	 1.4760029485	 0.011073
C	-2.5160680493	-0.7654881717	 2.3845131488	-0.246394
C	-2.7345785253	-2.1945213499	 1.8717885725	-0.203405
C	-1.4090479899	-2.7665685062	 1.351828285	-0.150673
N	-0.5959178806	-1.8095527298	 0.5804034138	-0.129587
C	-1.3309642386	-0.5924206253	 0.0194012395	-0.080722
H	 0.9674054016	 1.7762654513	 0.006031047	 0.288187
H	 0.7730967729	-0.414777267	-0.6813426499	 0.079778
H	 0.653147256	-0.7447063603	 2.1641140743	 0.065491
H	-1.5868954308	 1.049969242	 1.5600136871	 0.084063
H	-2.1216842919	-0.772857436	 3.4097618859	 0.095544
H	-3.4683674966	-0.2252991351	 2.425715187	 0.096599
H	-3.1690368822	-2.8447534117	 2.6382013942	 0.089963
H	-3.452817968	-2.1654132431	 1.0433174028	 0.100825
H	-0.7835689795	-3.1181522326	 2.1828847251	 0.097845
H	-1.5963507056	-3.6377266372	 0.7132511858	 0.099388
H	-2.050600628	-0.6745066658	-0.7974796106	 0.077657
