15
0 0
C	-0.0173533674	 1.513620143	-0.0745045846	-0.163114
C	 1.5464168556	 1.3416800569	-0.0005426308	-0.199742
C	 1.1411488761	 0.1557682859	 0.9532759479	-0.163111
N	-0.0873598495	-0.0266016373	 0.0333303543	-0.229124
C	 0.6494245853	-0.3324009672	-1.2011408386	 0.297483
C	 1.6928109471	 0.508251155	-1.2666344476	 0.312682
O	 2.3935956529	 0.2537392199	-2.39295568	-0.209047
C	 1.6747397239	-0.7858223683	-2.9563331251	 0.005984
N	 0.6257067591	-1.1733255576	-2.2854359828	-0.363172
H	-0.4599205372	 1.9735396911	 0.8139602639	 0.114554
H	-0.4515701804	 1.9217957223	-0.9884471808	 0.120089
H	 2.2450655229	 2.1343750029	 0.2592295072	 0.091249
H	 1.7974378343	-0.7142102657	 1.0067988744	 0.120088
H	 0.8209534871	 0.4722533938	 1.9503073894	 0.114551
H	 2.0554861304	-1.1669521746	-3.8891880669	 0.150629
