21
0 0
C	 0.0878680307	 1.5574551247	-0.0437908461	-0.403291
C	 0.0370265713	 0.0316841254	-0.1664066166	-0.166416
C	-1.3586332471	-0.5649350105	 0.0660966694	-0.072375
C	-2.3841842237	-0.1637220843	-1.0141842366	-0.400613
C	-1.2914434596	-2.0902085679	 0.1607106288	 0.194063
O	-0.3014687729	-2.7290289093	-0.1314972823	-0.303499
C	-2.5000953717	-2.7455565779	 0.6293676765	-0.007813
C	-3.4970195694	-3.2913406473	 1.0367542752	 0.155014
C	-4.6874761479	-3.9684783961	 1.5219047359	-0.505556
H	 1.1138928461	 1.9195227101	-0.1609203712	 0.116078
H	-0.5216964412	 2.0543369107	-0.8050524682	 0.116499
H	-0.2698681697	 1.8908297017	 0.9373411078	 0.111585
H	 0.396156385	-0.280104662	-1.1537111149	 0.108208
H	 0.7305642269	-0.4171999749	 0.5522603835	 0.108388
H	-1.747247675	-0.2156901851	 1.0344895104	 0.090682
H	-2.0378619589	-0.4701863035	-2.007186778	 0.125928
H	-3.3543186359	-0.6333828977	-0.8315151165	 0.126805
H	-2.531958423	 0.9190200758	-1.0254316381	 0.123919
H	-4.4246472567	-4.7770472094	 2.2122632773	 0.162897
H	-5.3584281394	-3.2781861176	 2.0436253598	 0.156527
H	-5.243813158	-4.4125247749	 0.6889673742	 0.162972
