18
0 0
C	-0.1072285529	 1.5505767167	 0.0725457075	-0.399944
C	 0.0162523413	 0.024373104	-0.021684411	-0.090362
C	 0.8458743083	-0.4664459749	-1.1940201853	-0.086197
C	 1.8391681575	-1.279069	-0.8303059423	-0.059504
C	 1.884995787	-1.4236772651	 0.6534770101	-0.144509
N	 2.1440248197	-0.1337749696	 1.3408516284	-0.367447
C	 0.7393224098	-0.6100097227	 1.1824305769	 0.158033
C	-0.0049248583	-0.9789106932	 2.3463390545	 0.190955
C	-0.6492440225	-1.2592205664	 3.3237492553	-0.389576
H	 0.8799681235	 2.0004627975	 0.2020499546	 0.140542
H	-0.5642000859	 1.9618454625	-0.8330820466	 0.109941
H	-0.7335933225	 1.8341079887	 0.9241888296	 0.120897
H	-0.9935364306	-0.4049146807	-0.0808650892	 0.089167
H	 0.6369232587	-0.1466650341	-2.2093155118	 0.09903
H	 2.5534126353	-1.7518145915	-1.4933144458	 0.102941
H	 2.2018846856	-2.3434431773	 1.1329094236	 0.102476
H	 2.421186588	-0.3243417739	 2.3033883499	 0.234197
H	-1.2139546621	-1.51626842	 4.1853519315	 0.189363
