19
0 0
C	-0.3030152424	 1.3838402003	-0.3688543035	-0.220777
O	-0.3566181287	-0.0115860485	-0.5609930928	-0.229074
C	-0.9566011895	-0.6746900279	 0.5335682831	-0.205517
C	-0.9888619732	-2.1111235665	 0.2949768442	 0.029513
C	-1.0331123483	-3.3042026719	 0.1363085319	 0.10688
C	-1.0642412777	-4.7367805049	-0.1327356723	-0.073436
O	-2.236821032	-5.1367487634	-0.857195868	-0.430505
C	 0.1833768154	-5.2064296281	-0.906109469	-0.054761
O	 0.0828534369	-6.579831984	-1.1956810244	-0.417889
H	 0.170049093	 1.8128044154	-1.2546289826	 0.133976
H	-1.3079483923	 1.8203610221	-0.2537238297	 0.10679
H	 0.2914160351	 1.6524527604	 0.5188674667	 0.107484
H	-0.3996229579	-0.4688042323	 1.464644574	 0.12027
H	-1.9834754232	-0.302261012	 0.6959083721	 0.119107
H	-1.1126000257	-5.2995686307	 0.8068144618	 0.124986
H	-2.3906057981	-4.4735725214	-1.5403018193	 0.289809
H	 0.2832534727	-4.59432053	-1.8183761488	 0.087947
H	 1.0814507274	-5.0531059759	-0.3001063492	 0.118163
H	-0.8202877815	-6.7086323707	-1.5148471041	 0.287033
