13
0 0
O	 0.0215286007	 1.3744890869	 0.1598343501	-0.418142
C	-0.0399294736	-0.0290346606	-0.0040011438	 0.040206
C	 0.5175196563	-0.7717573057	 1.2388193788	-0.316479
C	-0.1336331525	-0.2766338828	 2.5259703401	 0.154252
O	 0.498872905	 0.0011570948	 3.5075178451	-0.22236
C	-1.4690151322	-0.3620459969	-0.1969629663	 0.332425
N	-2.577414819	-0.6591356023	-0.3174207803	-0.307484
C	 0.7150928771	-0.4570887854	-1.2069072075	 0.290455
N	 1.3629234096	-0.7675563384	-2.110915198	-0.304525
H	 0.9478008654	 1.6284418571	 0.2629875717	 0.313439
H	 0.334026279	-1.8479106299	 1.1322167033	 0.168293
H	 1.5975632034	-0.6145461796	 1.3029234361	 0.150525
H	-1.2412760491	-0.2116184171	 2.5016335107	 0.119395
