18
0 0
O	 0.0661213783	 1.3592816551	 0.308151358	-0.422736
C	 0.0672312838	 0.000655781	-0.0751215031	-0.157812
C	-1.3308704758	-0.5760647587	-0.0529343368	 0.205868
C	-1.9641155982	-1.1403439728	 1.2012451012	-0.31213
C	-1.7369249766	-2.0339821626	 0.0152451699	-0.117211
C	-2.9161485717	-2.2256629435	-0.9370933285	-0.184696
N	-3.2395994736	-0.8641617534	-1.3416865932	-0.320539
C	-2.3189854341	 0.0781947614	-0.9824265861	 0.391852
O	-2.2900497581	 1.2390147567	-1.3578986421	-0.409889
H	-0.5998050952	 1.7855078875	-0.2532871166	 0.298098
H	 0.5012713316	-0.134129325	-1.080092255	 0.087943
H	 0.7089474192	-0.5384140846	 0.6311134015	 0.098589
H	-1.3001201406	-1.2666211498	 2.0498896567	 0.126579
H	-2.9772005782	-0.8475835284	 1.4594051686	 0.123996
H	-1.0001213804	-2.825461355	 0.078384781	 0.101855
H	-2.6277679505	-2.8398962617	-1.8004775696	 0.11632
H	-3.7708255639	-2.7106483862	-0.4499038558	 0.118813
H	-3.990737396	-0.6350944299	-1.97267079	 0.255098
