13
0 0
O	-0.07608383	-0.0938703961	 0.0006007206	-0.224247
C	 0.0008094045	 1.1020004573	 0.0055027454	 0.287129
C	 1.28865207	 1.906350038	-0.0019068497	-0.16365
O	 2.3772523018	 1.0335465094	-0.0156383832	-0.220214
C	 3.6154860598	 1.7114237945	-0.023161896	-0.189274
C	 4.6992140534	 0.726772351	-0.0375565827	 0.27453
N	 5.5801828061	-0.0185704976	-0.0489877147	-0.278705
C	-1.2074048205	 1.9565429846	 0.0198228105	 0.210019
N	-2.1389438765	 2.6411125835	 0.030687189	-0.284752
H	 1.2682994202	 2.5732101379	-0.8832579479	 0.143085
H	 1.2837399798	 2.5646167535	 0.8861165685	 0.14308
H	 3.7136544178	 2.3589658415	-0.9090954254	 0.151499
H	 3.7292574537	 2.3501754225	 0.8672752355	 0.151501
