16
0 0
C	-0.012775487	 1.4200891155	-0.0247347995	-0.239586
O	-0.0229190724	-0.0047216742	 0.0019875549	-0.262456
C	 0.5890813283	-0.602770284	-1.0276520625	 0.319063
N	 1.1838198935	 0.0168250165	-2.0367261951	-0.303078
N	 1.6335055829	-0.9910422514	-2.7897292529	-0.118107
N	 1.3747288818	-2.2235125171	-2.3435464252	-0.303078
C	 0.7084459277	-2.0035130383	-1.2194867537	 0.319063
O	 0.2278727747	-2.9477611888	-0.4010679769	-0.262456
C	 0.4739410712	-4.2914932613	-0.8069464779	-0.239586
H	 1.0127625107	 1.8046888809	-0.0132451959	 0.134007
H	-0.5179282471	 1.7985869032	-0.9199027895	 0.134029
H	-0.5449187795	 1.7405108293	 0.8715336509	 0.132813
H	 2.1385461219	-0.8312205477	-3.6424691329	 0.288523
H	 0.0229372567	-4.9233249505	-0.0410953201	 0.132813
H	 0.0184553352	-4.495732076	-1.7819257655	 0.134029
H	 1.5491099615	-4.4893048061	-0.8752093982	 0.134007
