19
0 0
C	-0.5216220774	 1.1506829558	-0.6243316167	-0.243547
O	-0.8036348676	-0.2534958714	-0.5236995737	-0.239363
C	-1.3783765559	-0.6544781143	 0.6461780351	 0.413441
O	-1.6326115286	 0.1116723759	 1.5370476705	-0.344296
C	-1.6379669187	-2.143166788	 0.636665258	-0.320409
C	-2.5097612703	-2.6121463637	-0.5452008162	 0.097629
O	-1.8305332665	-2.5668590096	-1.7825938565	-0.441201
C	-2.9496400695	-4.0674455723	-0.350050644	-0.076601
O	-3.7274889288	-4.2531770125	 0.8189481184	-0.412358
H	-0.0630254235	 1.292799976	-1.6027432042	 0.136165
H	-1.4412328299	 1.7347273052	-0.5416783244	 0.144935
H	 0.1634181342	 1.4580554497	 0.1688963117	 0.147662
H	-0.6779811096	-2.6702284521	 0.5786025308	 0.131033
H	-2.1278030705	-2.4034969637	 1.5757734953	 0.144713
H	-3.4205479831	-1.9841781636	-0.5752135105	 0.059885
H	-1.3764106855	-1.7166017405	-1.8271758983	 0.292797
H	-3.4750202545	-4.3944675437	-1.258079668	 0.103753
H	-2.062371365	-4.6989762254	-0.2371046856	 0.118249
H	-4.5779346092	-3.8230322818	 0.6834056881	 0.287514
