21
0 0
C	-0.494541764	 1.4488963229	 0.06416663	-0.416625
C	-0.1813819015	-0.0352654828	-0.0709725772	-0.153091
C	 0.9127455992	-0.5269408388	-1.0592369894	 0.102414
C	 1.8832654518	 0.4670650671	-1.6774146031	-0.068314
O	 3.0137090829	-0.2200344101	-2.1800419377	-0.423424
O	 1.591088691	-1.2570865222	 0.0051331083	-0.339706
C	 0.6979059152	-0.7126440199	 0.9821026048	 0.468135
C	 1.1952499979	-0.200198959	 2.2957438442	-0.333942
C	 0.3470044838	-1.4648685416	 2.2181505749	-0.337112
H	 0.4004271932	 2.0438384226	 0.2639640119	 0.126999
H	-0.9660788894	 1.8358271188	-0.8451519345	 0.121741
H	-1.1944011988	 1.6173986779	 0.8898105293	 0.119429
H	-1.1108530109	-0.5922702643	-0.2239563401	 0.087395
H	 0.5666502531	-1.2239713854	-1.8310075939	 0.08522
H	 1.4182658658	 0.9868117564	-2.5226007561	 0.105839
H	 2.176850476	 1.2232516897	-0.9335700387	 0.086049
H	 3.3248252661	-0.7727806804	-1.4519934341	 0.29164
H	 2.2529943679	-0.3217305155	 2.5038121202	 0.122771
H	 0.7509223019	 0.6988153253	 2.7109962473	 0.115037
H	-0.6767564566	-1.4273912142	 2.5774612855	 0.114371
H	 0.8494566555	-2.4131583663	 2.3764257383	 0.125174
