20
0 0
C	 0.1333998063	 1.3989830359	 0.2484289467	-0.223604
O	 0.2015892105	 0.0054365905	 0.0951323879	-0.247872
C	 0.3716371849	-0.3840134019	-1.2627754423	-0.079889
C	 0.4271504294	-1.9053811666	-1.2653017519	-0.020908
C	-0.2014847178	-2.8977846067	-2.2103477451	-0.095558
C	-0.0094263369	-2.5654485514	-3.7159917163	-0.055584
N	 0.6991062401	-1.2639738511	-3.8372866225	-0.332954
C	 1.4531007659	-2.5123452119	-3.5480987641	-0.055587
C	 1.3227028434	-2.8424626228	-2.0353817126	-0.095557
H	 1.0524696863	 1.8978120059	-0.1011553847	 0.097845
H	-0.7159569377	 1.8336166314	-0.3042152941	 0.097845
H	 0.0034579095	 1.6093551601	 1.313570972	 0.118979
H	-0.4615698951	-0.0091894937	-1.8722286013	 0.097511
H	 1.2921565939	 0.0544659187	-1.6708702953	 0.097509
H	 0.322460641	-2.2604137909	-0.2410165552	 0.106785
H	-0.8851369902	-3.6668888286	-1.8731557073	 0.087915
H	-0.6117147855	-2.9533658486	-4.5267597992	 0.093641
H	 0.8065746943	-1.0738736832	-4.8336313864	 0.227928
H	 2.2494303584	-2.8494801783	-4.1983104644	 0.093641
H	 1.9655424892	-3.563419937	-1.5459144939	 0.087915
