15
0 0
C	 0.0065320315	 1.4467801533	 0.0555920434	-0.314705
N	-0.0087269995	-0.0017218478	-0.0204948082	-0.315566
C	 0.5341349389	-0.6876037868	 0.8816715073	 0.4471
O	 1.170084968	 0.0194848753	 1.9904278629	-0.222789
C	 1.7424040711	-0.7003248235	 2.9414335815	 0.148687
N	 1.8072630064	-1.9772650936	 3.0078148143	-0.334467
C	 1.1875978364	-2.6177337316	 1.9285734095	 0.443164
N	 1.2527836139	-3.9609222829	 1.9935004754	-0.547045
N	 0.5875161736	-2.0458280977	 0.9254164223	-0.358268
H	 1.026969035	 1.8532780438	 0.063242919	 0.116043
H	-0.5132515229	 1.8505038847	-0.8165611192	 0.120919
H	-0.4965331959	 1.8223942701	 0.9569403232	 0.116038
H	 2.1856777127	-0.0804625842	 3.7190269919	 0.147727
H	 1.7159695148	-4.3954650018	 2.7706172425	 0.275874
H	 0.8349879563	-4.5110636572	 1.2638486343	 0.277289
