23
0 0
C	 0.0023547214	 1.5638622663	 0.0205260198	-0.406084
C	 0.0471586204	 0.032498199	-0.0034334137	 0.021701
C	 0.7192587301	-0.5115789114	-1.2764390848	-0.181536
C	 0.7562254096	-2.0456434219	-1.2902886812	-0.221624
C	 1.449399221	-2.5892508646	-0.0322793061	-0.21926
C	 0.7802071249	-2.059136215	 1.2377524307	 0.097903
O	 1.4993866269	-2.4271215548	 2.4182118535	-0.458594
C	 0.7342326917	-0.5245988687	 1.2524428096	 0.142057
O	 2.0552549445	-0.0064465359	 1.3231495586	-0.450401
H	 1.0137991367	 1.9782685103	 0.0383822986	 0.135872
H	-0.5152330842	 1.9532563466	-0.8622208871	 0.103449
H	-0.5244004167	 1.9298145476	 0.9085079808	 0.106578
H	-0.9868660619	-0.3431772549	 0.0200965472	 0.065
H	 0.1872615784	-0.1383622223	-2.1589800976	 0.085264
H	 1.7416041132	-0.1195326164	-1.3300594842	 0.111149
H	-0.2693150358	-2.4372109416	-1.342548485	 0.091744
H	 1.2714099196	-2.4082915007	-2.1863308325	 0.094328
H	 1.4374051454	-3.6873669233	-0.0278293286	 0.078366
H	 2.4983690714	-2.27211069	-0.021784567	 0.108352
H	-0.2529400069	-2.4389286427	 1.2958764239	 0.064056
H	 1.7786842265	-3.3435289128	 2.3289141584	 0.284573
H	 0.1639736691	-0.213075643	 2.1436087085	 0.059534
H	 2.5015611247	-0.5388616197	 1.9939147681	 0.287573
