18
0 0
C	-0.0390703455	 1.5782810715	-0.0784080798	-0.40028
C	-0.0104698182	 0.0454317816	-0.016269384	-0.02452
C	 0.8337077588	-0.5497206627	-1.1615377077	-0.339057
C	 2.254112417	-0.6401304167	-0.5874404769	 0.410313
O	 3.2944949109	-0.7249438933	-1.1971288727	-0.371023
N	 2.1107267716	-0.6204231543	 0.7765413497	-0.29972
C	 0.7542852857	-0.4937680938	 1.2414063455	-0.069964
C	 0.6342584635	 0.3560623045	 2.4862627701	 0.154572
O	 1.5718854851	 0.835835834	 3.0695497976	-0.249289
H	 0.9720682255	 1.9946985862	-0.022042298	 0.143329
H	-0.4858718656	 1.9097269085	-1.0203915891	 0.125835
H	-0.6276815474	 2.0104825777	 0.7367009	 0.120849
H	-1.0332036602	-0.3398289237	-0.021912733	 0.084753
H	 0.5054210645	-1.5606769235	-1.4289952854	 0.128142
H	 0.8282259126	 0.0536342685	-2.0711710689	 0.131585
H	 2.8992542784	-0.5764878543	 1.4026228377	 0.263886
H	 0.3210709026	-1.4734259794	 1.5198812726	 0.102657
H	-0.4079210693	 0.4755201395	 2.8575015024	 0.087933
