17
0 0
C	-0.0153444923	 1.5175892733	 0.0889184108	-0.487907
C	-0.0630307714	 0.0229697218	 0.0207861454	 0.278686
C	-0.1132657304	-0.6778019092	-1.1200732784	-0.284387
C	-0.0049047066	-2.1513565396	-1.1723712752	 0.404121
O	 0.1656405612	-2.7683271601	-2.1915061489	-0.334823
O	-0.0254045269	-2.8177808775	 0.0189650473	-0.245143
C	-0.5500186389	-2.1320107501	 1.1628857071	-0.113554
C	 0.0379283711	-0.7377286464	 1.3285862663	 0.02562
O	 1.3822193538	-0.746625852	 1.7991629436	-0.430353
H	 0.8683229543	 1.8329822951	 0.655648147	 0.155158
H	 0.0183436416	 1.9732802889	-0.9031136894	 0.133824
H	-0.8888559793	 1.9105711037	 0.624205652	 0.137644
H	-0.1399939965	-0.199249247	-2.0931832828	 0.119473
H	-1.6425156828	-2.0670737542	 1.0778664869	 0.116099
H	-0.2986134004	-2.7555785512	 2.0233428672	 0.132139
H	-0.5307109466	-0.2195528043	 2.1093234448	 0.100942
H	 1.9084476601	-1.2389472112	 1.1576646765	 0.29246
