18
0 0
C	 0.1237864237	 1.483750968	 0.0080183598	-0.351936
N	-0.020206001	-0.0056197075	 0.0017258448	-0.247334
H	 0.4447330562	-0.4042369183	-0.8181107405	 0.317422
H	 0.4601941254	-0.4126315725	 0.8084245273	 0.317407
C	-1.4542483208	-0.5295336567	 0.0127139934	-0.18024
C	-1.4569365838	-2.0391243527	 0.005125811	-0.342496
C	-2.9336174454	-2.549252876	 0.0172600436	 0.23613
O	-3.8271187956	-1.7362989492	 0.0318807571	-0.313694
C	-3.0162388822	-4.132426699	 0.0086584745	 0.29261
O	-4.1538901027	-4.5990563346	 0.016481406	-0.436708
O	-1.8666407477	-4.6270465683	-0.0037383382	-0.489485
H	 1.1815278365	 1.7503448434	-0.0007140031	 0.180661
H	-0.3743039995	 1.8798558779	-0.8769198451	 0.196051
H	-0.3572713296	 1.8706688462	 0.90634189	 0.19606
H	-1.9295502188	-0.1133969183	 0.9033965694	 0.169644
H	-1.9463008794	-0.1043696836	-0.8645181024	 0.169581
H	-0.9693783559	-2.4672593556	-0.8767413407	 0.143147
H	-0.9522625394	-2.4757904933	 0.873090703	 0.14318
