14
0 0
C	 0.3509135412	 1.293926523	 0.2215169705	-0.349626
N	 0.0888348832	-0.1327414194	 0.1119865182	-0.174248
C	-0.0216113328	-0.7840017162	-1.1072673429	 0.486033
N	 0.0850087516	-0.2543451748	-2.246731888	-0.6023
O	-0.2683295902	-2.1087041494	-0.7904028082	-0.236019
N	-0.3081991482	-2.2651818275	 0.5989543963	-0.149648
C	-0.0930376171	-1.0774493689	 1.0815854593	 0.314763
C	-0.072466719	-0.9025784533	 2.548108696	 0.102569
O	 0.1168108578	 0.1484967378	 3.1112146449	-0.263779
H	 1.2984620577	 1.5289715846	-0.2702517525	 0.158147
H	-0.4434810765	 1.8500556662	-0.2830720943	 0.158121
H	 0.3921166999	 1.5598060877	 1.2749373269	 0.180958
H	-0.0347415854	-0.9359763186	-2.9910384679	 0.241159
H	-0.2518388021	-1.8524434311	 3.0845175118	 0.13387
