13
0 0
C	-0.0625669469	 1.4644274244	 0.0102868713	-0.507309
C	 0.0033024951	 0.0120605529	 0.0024761222	 0.170299
C	 0.051425289	-1.1924216973	-0.0039559108	-0.028405
C	 0.0991919124	-2.6042377385	-0.0114425585	 0.202757
C	 1.2022265382	-3.4360504488	-0.0221174677	-0.202178
N	 0.6754345697	-4.678664652	-0.0253840078	-0.155717
N	-0.6732001275	-4.6456986408	-0.0173692951	-0.114382
N	-1.0271674098	-3.3991207273	-0.0089431992	-0.263522
H	 0.940057114	 1.9056276606	 0.0029489289	 0.15064
H	-0.5992635174	 1.8415160084	-0.8673931195	 0.155116
H	-0.5824925021	 1.8328190319	 0.9016534633	 0.155083
H	 2.2604092622	-3.2407160272	-0.0272828441	 0.151716
H	 1.1476290532	-5.5686978963	-0.032676933	 0.285901
