17
0 0
N	 0.0592981602	 1.1466101114	-0.5478654535	-0.535633
C	-0.1030586462	 0.2541123702	 0.4718979641	 0.409973
O	 0.7224230256	 0.1162587538	 1.3552912039	-0.365758
C	-1.3890221565	-0.5577893123	 0.4052611104	-0.139766
C	-1.0911747245	-2.0384150692	 0.1236731374	-0.032688
C	-0.9895237533	-2.3518244746	 1.5649868065	-0.019001
C	-1.8423020058	-1.0516060647	 1.8101258737	-0.07438
C	-3.0493556732	-1.9363114893	 1.4666663767	-0.166244
N	-2.1308563728	-2.9064659227	 0.78304593	-0.164497
H	 0.9079523621	 1.6875018218	-0.5789532344	 0.261343
H	-0.6129392686	 1.2528482448	-1.2863439548	 0.259055
H	-2.1472558123	-0.0646866548	-0.2156095424	 0.063159
H	-0.5673298167	-2.468254534	-0.7195366552	 0.103904
H	-0.2938285172	-2.9327021106	 2.1525015798	 0.104737
H	-1.8006892743	-0.3780951093	 2.6619747302	 0.08968
H	-3.4842743252	-2.4330196257	 2.3376503733	 0.112222
H	-3.8469264212	-1.5191705048	 0.8395891842	 0.093894
