19
0 0
C	-0.1760947977	 1.5619886035	 0.0172083993	-0.488729
C	 0.0135189988	 0.0721852805	 0.0184197506	 0.353748
C	 1.1101667401	-0.7122198743	-0.8976561133	-0.372044
C	 0.7362566384	-1.8475858334	 0.1198823629	 0.164328
C	 1.1228692629	-2.7458061017	 1.3279699527	-0.20203
O	 0.4650719913	-1.7645775998	 2.2183724368	-0.325128
C	 0.725958918	-0.7748204424	 1.1563893504	 0.110248
C	-0.7700530496	-1.9869448245	-0.1990668064	-0.093715
O	-1.1835336596	-0.6081496634	-0.2904275298	-0.289676
H	 0.7518703349	 2.0698618396	 0.292218383	 0.120722
H	-0.4832658261	 1.9084130986	-0.9743190002	 0.13231
H	-0.956576538	 1.8404589082	 0.7316004252	 0.139219
H	 0.8130292992	-0.8318376958	-1.9426306777	 0.111224
H	 2.1269171785	-0.3312247935	-0.8142706602	 0.113987
H	 0.6617991559	-3.734294029	 1.405558383	 0.116724
H	 2.1961707421	-2.8015612139	 1.540696375	 0.112996
H	 1.7106203238	-0.3336423413	 1.3533319412	 0.079973
H	-0.9429924753	-2.4913522461	-1.1570503226	 0.098073
H	-1.3364839976	-2.4886959112	 0.58975661	 0.117769
