18
0 0
O	-0.870030012	 0.3147061608	-0.009426604	-0.314181
C	-0.2830235445	 1.3450390456	 0.0353020884	 0.428528
O	-0.7681679427	 2.5761214892	 0.4075276207	-0.23809
C	 0.5509646288	 3.2005627385	 0.3286829026	-0.101367
C	 1.1456432872	 1.867730705	-0.2212163536	-0.137315
N	 2.2212763669	 1.1537769529	 0.3959778809	-0.297455
C	 3.5460760052	 1.6364829498	 0.1099785283	 0.067886
C	 4.1547719584	 2.8555686423	 0.7797317704	-0.27548
C	 4.6348486936	 1.4594931636	 1.1204361813	-0.292333
H	 0.5348471718	 4.0624953424	-0.3412484006	 0.12359
H	 0.9013946239	 3.4879211618	 1.3230370598	 0.117121
H	 1.3375005201	 1.9363368975	-1.297639153	 0.124777
H	 2.0712450271	 1.0073734602	 1.3869872742	 0.227327
H	 3.8188377137	 1.4777394592	-0.9310237409	 0.101869
H	 4.8050166643	 3.501338925	 0.1992415399	 0.11636
H	 3.563352329	 3.3712155321	 1.5290996245	 0.108389
H	 4.360633183	 1.0586499764	 2.0915845104	 0.116576
H	 5.6125668863	 1.1416117877	 0.7772214406	 0.123799
