19
0 0
O	 0.0045791418	 0.0738833826	 0.2488798497	-0.299003
C	-0.0134028411	 1.2691275216	 0.133955054	 0.40413
C	-1.2862045815	 2.1488628304	 0.0659065205	-0.465029
C	-0.7153732734	 3.5288208631	-0.0404920516	 0.272138
C	 0.6212686069	 3.5471131546	-0.0593889227	 0.272138
C	 1.1837650789	 4.9304048377	-0.2231803221	-0.341102
C	-0.078278915	 5.8300573639	-0.0399480751	-0.199447
C	-1.3199105527	 4.896141392	-0.1877844419	-0.341102
C	 1.2324209012	 2.1833308714	 0.030299269	-0.465029
H	-1.8989663114	 1.844812546	-0.7937978389	 0.132803
H	-1.9063443977	 1.9765479821	 0.9555190146	 0.132691
H	 1.9701359558	 5.1689425313	 0.5027495233	 0.104383
H	 1.6394862159	 5.0562722032	-1.2157125892	 0.106128
H	-0.0700228718	 6.2639933499	 0.9640837311	 0.108842
H	-0.0996673878	 6.663436524	-0.7461135235	 0.101452
H	-1.8067757804	 5.0091092119	-1.1669908408	 0.106128
H	-2.0916813342	 5.1133555217	 0.5601737184	 0.104383
H	 1.8819394275	 2.0283916232	 0.9019618769	 0.132691
H	 1.8287282794	 1.8958270097	-0.8464983922	 0.132803
