19
0 0
C	 0.0846239252	 1.5445256781	-0.0881588536	-0.499164
C	 0.036038288	 0.0902627808	-0.0564842366	 0.069832
C	-0.0117211999	-1.1135038396	-0.0318130214	 0.100949
C	-0.0436310163	-2.545281262	-0.0195086584	-0.230471
C	-0.4323345746	-3.3241283399	 1.2243467395	-0.031514
C	-0.7788597847	-2.6237418663	 2.5151150392	-0.40887
C	-1.382562233	-3.313288945	 0.0381827364	-0.227499
C	-2.6308727168	-2.6154786491	 0.0858563058	 0.360363
C	-3.6930232815	-2.0513850892	 0.1149431882	-0.47436
H	 0.7404789317	 1.9430156206	 0.6941940976	 0.145427
H	 0.4596422766	 1.9082391615	-1.0513772997	 0.147645
H	-0.9111122254	 1.9763288882	 0.0621091094	 0.149859
H	 0.7008537785	-3.0195011048	-0.6534307713	 0.112221
H	 0.1052261184	-4.2606444533	 1.3467929438	 0.094743
H	-1.3148698159	-1.6913631429	 2.3282965764	 0.14261
H	-1.4118023593	-3.2605075022	 3.1417234745	 0.120051
H	 0.1292060146	-2.3863946269	 3.0789561153	 0.119296
H	-1.3999538303	-4.2194513479	-0.5607565367	 0.115366
H	-4.6267876654	-1.54705962	 0.1372771616	 0.193515
