21
0 0
C	 0.1336000221	 1.5108363002	 0.4261351543	-0.374121
C	 0.0013973078	 0.1036861636	-0.1843657848	-0.288312
C	-1.3838383861	-0.4651701472	-0.0827539193	 0.340545
C	-2.197025598	-0.7667267085	-1.0984594807	-0.208165
C	-3.5119921003	-1.3766251878	-0.6517790417	-0.090358
C	-3.487426988	-1.132345202	 0.8849292497	-0.246807
C	-2.0114905723	-0.8398684683	 1.2448125826	-0.303588
C	-4.6992626649	-0.701266999	-1.3101510158	 0.157815
O	-5.4897938964	-1.2355404305	-2.0430811881	-0.251715
H	 1.1575035786	 1.8818450782	 0.3213093519	 0.117311
H	-0.5367363961	 2.2171385691	-0.0733176488	 0.122083
H	-0.1125039378	 1.5122094667	 1.4924444147	 0.120578
H	 0.3051620969	 0.1334620841	-1.2364422401	 0.10542
H	 0.7056178192	-0.5688558501	 0.3254180253	 0.105366
H	-1.9490786016	-0.6426174695	-2.1475635451	 0.097353
H	-3.5665849672	-2.4417150125	-0.9092233228	 0.093075
H	-4.099153716	-0.2528597477	 1.1188698542	 0.106928
H	-3.9108119297	-1.9723053495	 1.4395849568	 0.112002
H	-1.5063577265	-1.7233792441	 1.6607569182	 0.10936
H	-1.9193885911	-0.0536627857	 2.0021016784	 0.108075
H	-4.7845451627	 0.3841751004	-1.0597935586	 0.067154
