13
0 0
N	-0.7749082082	 0.9399443177	 0.1419926572	-0.500934
C	 0.4545298832	 0.2128491053	-0.1226849082	-0.286141
C	 0.9543184713	-0.4606855157	 1.1161169852	 0.35186
C	 0.4171205619	-0.6766416103	 2.3619660945	 0.083345
N	 1.371366851	-1.3726346383	 3.0869003024	-0.15
N	 2.3917884782	-1.5819622188	 2.4063879403	 0.003537
O	 2.1637347895	-0.9908085078	 1.0882815314	-0.218487
C	-0.8303040496	-0.3148376243	 2.926068991	 0.266334
N	-1.830595814	-0.0326225661	 3.4339286788	-0.341883
H	-0.5921343276	 1.8247387145	 0.6021872046	 0.249428
H	-1.2652542489	 1.139541024	-0.7210581495	 0.249695
H	 0.2462607108	-0.5722182671	-0.860611755	 0.158497
H	 1.2862657024	 0.8052115068	-0.5386088526	 0.134749
