20
0 0
C	 0.1205525989	 1.3681150389	-0.2155111834	-0.386759
C	 0.0879599279	-0.1123000054	 0.1712147189	-0.199104
C	 0.6831815272	-0.3756628457	 1.5502976884	 0.208246
O	 0.6178714995	-1.7379079333	 1.9189372859	-0.260382
C	 1.8868510058	-2.3188514763	 1.6667384554	-0.192593
C	 2.833810865	-1.1403605138	 1.6058587927	 0.401596
O	 2.0659568312	-0.0059648416	 1.5872441225	-0.248449
N	 4.086974372	-1.2031841542	 1.5779369057	-0.321073
C	 4.8748341922	 0.0157130479	 1.4953653766	-0.335062
H	 1.1476524939	 1.7419050745	-0.2411288146	 0.134631
H	-0.3245100059	 1.523517198	-1.2020145888	 0.120174
H	-0.4402201363	 1.9773469168	 0.5021102423	 0.118804
H	-0.9420358004	-0.4860430735	 0.1889001365	 0.113463
H	 0.6350241335	-0.7153824081	-0.5636032771	 0.104089
H	 0.1653542508	 0.2101732115	 2.3200233002	 0.098789
H	 2.1422659205	-3.0036439932	 2.4788243558	 0.142449
H	 1.9019843392	-2.8782763661	 0.7207219419	 0.125682
H	 5.4932077116	 0.1041918482	 2.3960503939	 0.128168
H	 5.5631527355	-0.062760113	 0.6465724366	 0.125816
H	 4.2826731779	 0.9315195385	 1.3868593107	 0.121517
