19
0 0
C	 0.2773801672	 1.6275245695	 0.0869255383	-0.383454
C	-0.1425203384	 0.1577280319	-0.0184643533	-0.20055
C	 0.5142148102	-0.5470770491	-1.1896842932	 0.078557
O	 1.9776045232	-0.5636711269	-1.1254560043	-0.293868
C	 2.0019915557	-1.9596648739	-1.3590033452	 0.085763
C	 1.3496985268	-2.7346760036	-0.2837104822	-0.35421
C	 0.4575582213	-2.0723574612	-1.3238992671	 0.142976
C	-0.3872758148	-2.8418730692	-2.2424173237	 0.061267
O	-0.3567480295	-4.0457914133	-2.3651523603	-0.278442
H	 1.3610011349	 1.7086250634	 0.2089966982	 0.139958
H	-0.0019148706	 2.1860502996	-0.8131810203	 0.116735
H	-0.201011947	 2.1114020236	 0.9430298119	 0.116717
H	 0.102575117	-0.3701644349	 0.9094335272	 0.104277
H	-1.2298991496	 0.0793416665	-0.1495855269	 0.104672
H	 0.2212974798	-0.0712975643	-2.1368711783	 0.08676
H	 2.6991303866	-2.3494276419	-2.0920504507	 0.126642
H	 1.3762305708	-3.8132639763	-0.4000009529	 0.151863
H	 1.3653173937	-2.3610171442	 0.7350918678	 0.126591
H	-1.0724472374	-2.2195110557	-2.8629088051	 0.067746
