22
0 0
C	 0.0252215021	 1.5087648426	-0.1644884916	-0.338835
N	 0.0137889336	 0.0559897619	-0.0243219342	-0.180042
C	-1.1216875804	-0.5168024105	 0.7714804621	 0.385892
C	-2.5490753289	-0.4870047866	 0.3109588722	-0.531126
C	-0.2554296322	-1.7485236639	 1.1901842656	-0.14271
C	-0.6225049341	-1.6002931174	 2.6781675418	-0.290594
C	-0.5251121646	-0.1430782615	 2.1870362289	-0.159223
C	 0.6691708231	-0.4885396911	 1.2104540443	 0.385891
C	 2.1461572498	-0.4128979706	 1.4618326236	-0.531126
H	 1.0131534412	 1.832270489	-0.5088677105	 0.11621
H	-0.700638759	 1.8052228152	-0.9290156457	 0.11621
H	-0.2105223919	 2.0614458718	 0.7615387521	 0.090513
H	-2.64383233	-0.9545615546	-0.6745574238	 0.129942
H	-3.1929529137	-1.0280044602	 1.012112543	 0.124921
H	-2.9229328004	 0.5400827033	 0.2377669042	 0.122383
H	-0.0935486709	-2.6430572784	 0.5873588632	 0.07134
H	-1.6138253189	-1.9532142691	 2.9783731379	 0.091713
H	 0.1277081222	-1.9257328604	 3.4052588068	 0.091713
H	-0.6800759131	 0.7718709254	 2.7603302658	 0.069681
H	 2.4087116325	-0.9395976557	 2.3851571954	 0.124921
H	 2.6996874083	-0.8702117432	 0.635213747	 0.129942
H	 2.4807287452	 0.6253718538	 1.5622962118	 0.122383
