12
0 0
O	-0.047340178	 0.0140163596	-0.0013330814	-0.242523
C	 0.0144169596	 1.2170734198	 0.0069472354	 0.084798
C	 1.2749582492	 1.991815456	-0.0006096293	 0.166629
N	 2.4723004882	 1.408633287	-0.0178377525	-0.239848
N	 3.3428900802	 2.4236583688	-0.0194561101	-0.16984
C	 2.7670876494	 3.6453933209	-0.0039316237	-0.102289
C	 1.4024176861	 3.415527409	 0.0090191765	 0.0566
C	 0.3709700741	 4.3845367148	 0.0275414126	 0.203957
N	-0.4785785993	 5.1712471152	 0.0426688527	-0.337432
H	-0.8954757586	 1.8530412832	 0.0211378971	 0.10306
H	 4.3293368544	 2.2150019705	-0.0317180807	 0.298439
H	 3.3371821145	 4.5600010651	-0.0030301365	 0.17845
