19
0 0
O	 0.1665844943	-0.0824222693	 0.2611002214	-0.396719
C	 0.0170340621	 1.1138247523	 0.051322625	 0.335544
N	-1.2272712249	 1.6858679831	 0.207815348	-0.310665
C	-1.6482071912	 3.0151865384	-0.1859031486	-0.169201
C	-1.5007773678	 4.0505842018	 0.9397616323	-0.180076
C	-0.0824602956	 4.0482432914	 1.5205968872	-0.168926
N	 0.9487530332	 4.2341514009	 0.5105914791	-0.290339
C	 1.51583013	 3.2288284092	-0.2245077306	-0.003052
C	 1.1488109983	 1.9428554792	-0.4266920511	-0.192105
H	-1.9221656123	 1.0269197411	 0.5247806457	 0.238521
H	-1.0559695072	 3.3278275868	-1.0510860212	 0.135311
H	-2.6909549979	 2.969405966	-0.5168191422	 0.107844
H	-1.7446770141	 5.0455987008	 0.548743122	 0.095551
H	-2.2110514812	 3.8326953753	 1.7470362316	 0.097636
H	 0.0194975207	 4.8487943662	 2.2590408019	 0.106699
H	 0.0996230936	 3.1020496729	 2.0440762992	 0.134915
H	 1.4846063286	 5.081362193	 0.5694850613	 0.247379
H	 2.433779916	 3.5525314891	-0.7107506892	 0.106973
H	 1.8635082756	 1.3404169718	-0.9752109719	 0.104712
