19
0 0
O	-0.1293172585	 1.4484913368	 0.0756505246	-0.419813
C	-0.070498026	 0.0410024851	 0.2484059663	-0.067868
C	-1.363684067	-0.5481129684	-0.306256294	-0.200739
C	-1.3956348494	-2.0563174513	-0.1893901714	-0.052913
C	-1.8106224742	-2.7333788368	 1.0968574112	-0.344961
C	-2.7151862402	-2.7963237819	-0.1263894819	 0.182017
O	-3.8550847191	-1.97793415	-0.1365180253	-0.445904
C	-2.8563898271	-4.0487747256	-0.8246566918	 0.301724
C	-3.0040551422	-5.1001524344	-1.3906622163	-0.468042
H	 0.6833880197	 1.8283991629	 0.4214531708	 0.285077
H	 0.7946343702	-0.390142858	-0.2824225903	 0.081646
H	 0.0340611901	-0.2295804924	 1.3115022731	 0.086294
H	-2.2138153504	-0.1104202176	 0.223032425	 0.123526
H	-1.4603911819	-0.250480293	-1.3567539875	 0.112983
H	-0.6287400284	-2.5749119955	-0.758296775	 0.101299
H	-1.3018658046	-3.6365856478	 1.4129545906	 0.12126
H	-2.170711395	-2.0947820766	 1.8970047338	 0.120085
H	-4.5605639386	-2.454728204	 0.3147936287	 0.288283
H	-3.1285061573	-6.0217140114	-1.9032442208	 0.196047
