19
0 0
C	-0.0322647421	 1.4256515666	-0.1002930207	-0.325258
N	 0.0477397751	-0.003252684	 0.0919105081	-0.076791
C	-1.1867156993	-0.7460459895	 0.4169308401	-0.196904
C	-0.4020303327	-1.5618142644	 1.4769265095	 0.108038
O	 0.1007951812	-2.8209711162	 1.0822189671	-0.269787
C	 1.3244231155	-2.632923656	 0.3650164008	-0.076456
C	 1.972691827	-1.3777286245	 0.9699168776	-0.227379
C	 0.7443905261	-0.5281891235	 1.2897616673	-0.006058
H	 0.9713777555	 1.8418886979	-0.2390260605	 0.119039
H	-0.6114528753	 1.6481550492	-1.0029970652	 0.121332
H	-0.5085992401	 1.956914008	 0.7469417312	 0.087549
H	-1.9676077531	-0.1209949289	 0.8801210039	 0.082684
H	-1.6232120556	-1.3066046641	-0.4169654189	 0.104669
H	-0.8816883036	-1.675587906	 2.4500222284	 0.083193
H	 1.9187099835	-3.5426483317	 0.4841239232	 0.104504
H	 1.1243694587	-2.4777889799	-0.7035860117	 0.104496
H	 2.5125766965	-1.6224954591	 1.8912446628	 0.100821
H	 2.6590046923	-0.883428257	 0.2778294259	 0.10439
H	 0.8883322707	 0.2043692931	 2.0936663411	 0.057919
