23
0 0
C	 0.0141462906	 1.6360319895	-0.1708543739	-0.481466
C	 0.0067015032	 0.1065274527	-0.0482171812	 0.385892
C	-1.4215207915	-0.3882736814	-0.3641098411	-0.271079
C	-2.349554563	-0.3957935342	 0.8469462595	-0.067473
O	-3.6554150601	-0.718427573	 0.3894360898	-0.42031
C	 1.2050486079	-0.709289232	-0.669176426	-0.088596
C	 2.1229026649	-0.1543243089	 0.4577845463	-0.241005
C	 0.7892017952	-0.5537299659	 1.1568695278	-0.079069
C	 0.8691819405	-1.8653623979	 0.3226954001	-0.228349
H	-0.1388507377	 1.930999433	-1.2154710211	 0.117634
H	-0.8120495343	 2.0672504734	 0.4051499121	 0.115564
H	 0.9299052036	 2.1145193509	 0.1770914416	 0.114346
H	-1.8656182753	 0.2709073068	-1.1187823888	 0.099406
H	-1.4299989704	-1.388551987	-0.803131236	 0.104608
H	-1.9946571259	-1.1342928749	 1.58343351	 0.086403
H	-2.3368331838	 0.5874791859	 1.344273272	 0.084125
H	-4.2403687959	-0.7538240357	 1.1517662407	 0.283572
H	 1.4480420681	-0.8029331347	-1.7302345396	 0.064049
H	 2.9871053538	-0.7742935333	 0.7098957646	 0.087451
H	 2.4053385093	 0.8964601049	 0.4273916424	 0.091008
H	 0.5569570913	-0.4652745872	 2.2207492514	 0.062079
H	-0.0464850705	-2.4344483266	 0.1687816859	 0.094799
H	 1.6998298199	-2.5320236645	 0.5676818033	 0.086409
