22
0 0
C	 0.0613579679	 1.5754096212	 0.0033463182	-0.392162
C	 0.0801629891	 0.0481244163	-0.0335924821	 0.051438
C	 0.610359621	-0.5086001362	-1.3705569245	 0.103141
O	 1.8471006428	 0.1352469878	-1.6847378127	-0.42885
C	 0.768902334	-2.0287737176	-1.2758895277	-0.239845
C	 1.7930763479	-2.4097544589	-0.1958734684	-0.219746
C	 1.5407886677	-1.6833932101	 1.1259086963	-0.009777
C	 2.1610137781	-0.3472167324	 1.3718713736	-0.249766
N	 0.7173942145	-0.4688502988	 1.1838703789	-0.095823
H	 1.0707476001	 1.9800892433	-0.0978077824	 0.132704
H	-0.5450502494	 1.9730659004	-0.8167781534	 0.105291
H	-0.3628930991	 1.9193786	 0.950242344	 0.118532
H	-0.9594784293	-0.307025568	 0.0190352972	 0.077428
H	-0.1384814344	-0.2648382469	-2.1417240463	 0.062276
H	 2.1797776134	-0.2421711071	-2.5052182803	 0.282689
H	-0.212071246	-2.4624195451	-1.0433250414	 0.102561
H	 1.070087175	-2.4418237299	-2.2470952922	 0.082215
H	 1.761962695	-3.4901635049	-0.0265753157	 0.097811
H	 2.7986641057	-2.1799254248	-0.561099569	 0.105301
H	 1.3850309826	-2.3358444532	 1.9832568062	 0.082929
H	 2.4734478622	-0.0585343516	 2.3732073463	 0.101283
H	 2.7566676111	 0.0646035363	 0.5623748953	 0.130369
