22
0 0
C	-0.0588376055	 1.5540329466	-0.0534557872	-0.399635
C	-0.0261132566	 0.0238448588	 0.065766256	 0.141144
C	 0.9592694086	-0.3904526604	 1.1837273227	-0.415971
C	-1.437936754	-0.5111950614	 0.3880082851	-0.414739
C	 0.465421859	-0.5810682681	-1.2575211514	 0.381505
O	 0.8840114778	 0.1072626818	-2.1679775479	-0.350908
C	 0.4302302461	-2.0741143626	-1.4238584845	-0.09707
C	-0.1881259647	-2.577231055	-2.6947628765	-0.22276
N	 1.2528383254	-2.6437316688	-2.5010602149	-0.307444
H	 0.9290724392	 1.9522453115	-0.2953969139	 0.127082
H	-0.7421946273	 1.8738550432	-0.8447503504	 0.119951
H	-0.3927007414	 1.9959549863	 0.8908441408	 0.103926
H	 0.6411705838	 0.0502709029	 2.1343203784	 0.12137
H	 1.0024677514	-1.4749524375	 1.3193713356	 0.121256
H	 1.9717429119	-0.0339390594	 0.9699924076	 0.128621
H	-2.154456697	-0.2351482298	-0.3922240815	 0.122921
H	-1.4563887881	-1.5994040605	 0.4949267944	 0.119324
H	-1.7888592903	-0.0805833266	 1.3315368267	 0.120195
H	 0.3508475828	-2.6863605322	-0.532752761	 0.099589
H	-0.7099924043	-3.5298568291	-2.6810015379	 0.124456
H	-0.5872378152	-1.828654988	-3.3736638774	 0.129834
H	 1.6755230483	-1.8504084613	-2.9862028931	 0.247351
