22
0 0
C	-0.9770521866	 1.2746664954	-0.1009413415	-0.40489
C	-0.2604950074	-0.0632872577	-0.1618988083	 0.060035
C	 0.6727910409	-0.4421126671	-1.3629488953	-0.092057
C	 0.8937121231	 0.5123713781	-2.531306452	-0.412928
C	 1.7804583597	-0.6113672462	-0.3159216729	 0.303152
C	 2.6895560926	-1.8100492741	-0.1754241192	-0.158265
O	 3.094892666	-1.9790119502	 1.1672880133	-0.41748
C	 1.9661832305	 0.6148516885	 0.4796608953	-0.285173
N	 0.848711704	-0.2859267882	 0.8453771011	-0.203501
H	-0.3167009814	 2.1249560688	-0.290745046	 0.117314
H	-1.7815264624	 1.3087976564	-0.8432389461	 0.119592
H	-1.4252175151	 1.4113269932	 0.8887252862	 0.129232
H	-0.9927487324	-0.8574980759	 0.0081626688	 0.084637
H	 0.378191029	-1.4199223482	-1.7576388285	 0.078174
H	 1.2180053247	 1.5048555425	-2.2057460255	 0.116669
H	 1.6608611222	 0.1214549696	-3.2086734049	 0.120082
H	-0.0257359537	 0.638286532	-3.1131272267	 0.117542
H	 2.1646568517	-2.7042345711	-0.5541190313	 0.083001
H	 3.6000419861	-1.6889509722	-0.7749487978	 0.10991
H	 2.2947397938	-1.8435048294	 1.69559307	 0.293614
H	 2.7581696375	 0.5994944981	 1.2204659902	 0.132099
H	 1.7567793972	 1.5926656478	 0.0575936813	 0.109241
