13
0 0
O	-0.1252405805	-0.0106309257	 0.0301969009	-0.247027
C	-0.0187683506	 1.1820872494	-0.1075970785	 0.086834
C	 1.2584706969	 1.9094691861	 0.0544729765	 0.231142
C	 1.3382571125	 3.360673883	 0.3238587554	-0.277724
N	 1.6735886368	 2.9303385522	-1.0510984602	-0.198229
C	 3.0159574426	 2.3407495324	-0.9643480597	 0.418241
O	 3.9786964924	 2.6284483576	-1.5964363248	-0.276754
C	 2.639630538	 1.2642379067	 0.0627385705	-0.43949
H	-0.8825226366	 1.8274484899	-0.3777526636	 0.092271
H	 0.4155517461	 3.9316871175	 0.3651782034	 0.150702
H	 2.1298103678	 3.7280510206	 0.9730562625	 0.145893
H	 3.1925803838	 1.2525333011	 1.0044511304	 0.143871
H	 2.6459608909	 0.2632630492	-0.3747234127	 0.17027
