15
0 0
O	-0.8331334293	 1.077448262	-0.0213218106	-0.250683
C	 0.3062654429	 0.7068025876	 0.1050157194	 0.169292
C	 1.5040207607	 1.6228893591	-0.0357643155	-0.098155
N	 2.6356162062	 1.0142279448	-0.7899881005	-0.336128
C	 2.6881345896	 2.1888315282	-1.7114388928	-0.175378
C	 1.4011021579	 2.7835282416	-1.0678977633	 0.001497
N	 0.7072523808	 2.4821076392	-2.3128131224	-0.319031
C	 1.7974790639	 1.9121668066	-2.9587202155	 0.45112
O	 1.9257787784	 1.386567355	-4.0266494026	-0.346897
H	 0.5614016059	-0.3542838623	 0.3207725377	 0.093152
H	 1.7808965555	 1.9935819097	 0.9619785024	 0.105936
H	 3.4793456437	 0.9011230633	-0.2419953233	 0.235131
H	 3.6399813052	 2.7052876322	-1.8220847981	 0.105083
H	 1.2856945746	 3.800296636	-0.6967160295	 0.101128
H	-0.281178886	 2.3394735269	-2.4686458453	 0.263934
