17
0 0
C	-0.0226403811	 1.5238300293	 0.0130215625	-0.210292
C	 1.4005552429	 2.1132131875	 0.0412677906	-0.157435
N	 2.2273584368	 1.5710468033	 1.1293851481	-0.405351
C	 1.9124825542	 0.301211384	 1.5175181211	 0.468439
C	 0.952355262	-0.5164662611	 0.9850806037	 0.085903
C	-0.0060261993	-0.0197582775	-0.0549503884	-0.34009
C	 1.1211733492	-1.7027864175	 1.7403740796	-0.075916
N	 2.0730121413	-1.6192458291	 2.6402452295	-0.169417
O	 2.5972666522	-0.3056702883	 2.4890766461	-0.241598
H	-0.5561744473	 1.8379244911	 0.9175875203	 0.110362
H	-0.5587295198	 1.9413387428	-0.8448800122	 0.103744
H	 1.8982511516	 1.905313573	-0.9153890384	 0.119243
H	 1.3619503366	 3.1996249205	 0.1524573635	 0.114624
H	 2.5310107977	 2.2044489571	 1.852536278	 0.254375
H	-1.0165971184	-0.4078071056	 0.1129941924	 0.111215
H	 0.2836952185	-0.3446047175	-1.0637058148	 0.110627
H	 0.5665459828	-2.6297875219	 1.6715446682	 0.121565
