17
0 0
C	 0.0680902507	 1.6959619674	 0.1018627294	-0.42109
C	 0.0311014776	 0.1756177073	 0.1398844686	-0.078444
C	 1.060721885	-0.6309098184	-0.691907765	-0.105938
C	 2.187806409	-0.4689471561	 0.3779462259	 0.037808
O	 2.492487787	-1.8894874801	 0.4670034671	-0.325635
C	 1.0467406684	-1.826481455	 0.309015365	 0.037454
C	 0.8545575469	-0.5572423287	 1.2198253717	 0.2341
C	 0.7489250759	-0.5386647134	 2.6985628336	 0.016426
O	-0.0627372146	 0.1167530669	 3.3082831611	-0.254866
H	 1.092476365	 2.078711552	 0.1683788249	 0.112293
H	-0.3688933534	 2.0762057115	-0.827373343	 0.119151
H	-0.4989720179	 2.1124724592	 0.9392820674	 0.143333
H	-0.9960040886	-0.1940660043	 0.0497401502	 0.082638
H	 1.1985052001	-0.692710426	-1.7715686018	 0.090414
H	 3.0067176954	 0.244651838	 0.4561461372	 0.11126
H	 0.4726479417	-2.7526670162	 0.3005038593	 0.109898
H	 1.4888654318	-1.182920214	 3.2227080983	 0.091199
