16
0 0
N	 0.0176268205	 1.3498392914	-0.0541740064	-0.55358
C	-0.0673708488	-0.004039435	 0.0406507129	 0.376653
N	-1.1379062756	-0.6974306174	 0.1283856631	-0.299527
C	-0.78528979	-2.1183559139	 0.0071849742	-0.19089
C	 0.7669701099	-2.1795966907	 0.0249685647	 0.011572
C	 1.5846743182	-2.43795324	-1.2711041203	-0.392211
C	 1.8569986761	-0.9222397642	-1.2722901327	 0.389144
O	 2.3991185092	-0.1308802356	-1.9807531515	-0.305088
N	 1.1536660077	-0.7409619126	-0.0360524128	-0.169425
H	 0.875378424	 1.7827074758	 0.244598718	 0.269788
H	-0.8338479032	 1.8586766382	 0.1201350511	 0.268383
H	-1.2143411117	-2.6878606434	 0.8378179821	 0.112634
H	-1.2108285287	-2.5353242677	-0.916546224	 0.106005
H	 1.1600417181	-2.6784005808	 0.9131380413	 0.095441
H	 2.4695013231	-3.0726656632	-1.187480437	 0.137679
H	 0.9926065514	-2.7568679308	-2.1330163126	 0.143422
