20
0 0
C	 0.0770371283	 1.6051872829	 0.0449305511	-0.403528
C	-0.0360473454	 0.0752833377	 0.0352705867	 0.013062
C	 0.4791115719	-0.4833807352	-1.3007347187	-0.17305
N	 0.178448814	-1.8880469104	-1.5413632142	-0.299999
C	 0.6353597964	-2.9751169617	-0.849650617	 0.370235
O	 0.5070209866	-4.1086726979	-1.2741286728	-0.361914
C	 1.3193829674	-2.7052454771	 0.4977572733	-0.189183
O	 0.5804170565	-1.9032349388	 1.3934015832	-0.238614
C	 0.722686625	-0.5073866907	 1.2342305299	-0.071808
H	 1.1163273372	 1.9281890233	-0.0888450706	 0.119714
H	-0.5153503754	 2.0524792039	-0.7592261432	 0.119708
H	-0.2788892317	 2.0209463575	 0.9925694827	 0.122679
H	-1.0893968297	-0.2142264323	 0.1347617349	 0.093337
H	 0.013080842	 0.073952478	-2.1181749913	 0.113187
H	 1.5616024853	-0.2932721358	-1.3765739469	 0.107686
H	-0.2326179454	-2.1327439888	-2.4301334604	 0.246639
H	 1.4465886484	-3.682979539	 0.9654311939	 0.137625
H	 2.3200951817	-2.2750995855	 0.3183119852	 0.100676
H	 1.7919829278	-0.2398004912	 1.1572629275	 0.084115
H	 0.3386438291	-0.0651727189	 2.1594981269	 0.109436
