17
0 0
O	 0.1089339375	 1.3484385572	 0.0777950421	-0.491065
C	 0.0697059037	-0.0301091263	 0.0737209345	 0.46012
C	 0.9833539446	-0.7424240169	 1.0592203812	-0.290864
C	 0.6365428396	-2.2269328837	 0.7327535464	-0.290864
C	-0.3966307139	-2.0262380461	-0.3652579974	 0.460123
O	-0.9456612473	-3.1657013302	-0.9149303251	-0.491066
C	-1.2903326361	-0.7913957508	-0.0253493267	-0.108124
O	-1.394647464	-0.4507887496	-1.463394812	-0.362257
C	 0.0256461225	-0.8251639	-1.269790743	-0.108123
H	-0.521684047	 1.6373907473	-0.5968981518	 0.289117
H	 2.0335378686	-0.4985131247	 0.8778727224	 0.115375
H	 0.7507040618	-0.4655948649	 2.0909690206	 0.115375
H	 1.4963582064	-2.7978849125	 0.3722031958	 0.115374
H	 0.2135246044	-2.7649704944	 1.5853005228	 0.115374
H	-1.5734179267	-2.8645179776	-1.5869375074	 0.289117
H	-2.1933474062	-0.7140400608	 0.5821881167	 0.091195
H	 0.6842070322	-0.787878576	-2.1389445789	 0.091195
