16
0 0
O	 0.058902727	 1.3829423881	 0.1090119075	-0.452202
C	 0.0226295886	-0.0091487212	 0.0007946781	 0.161541
C	-1.3440116267	-0.6215075991	-0.4119647537	 0.049444
C	-1.5477143973	-0.022742569	-1.8095845158	-0.197371
N	-0.141610635	 0.0836462715	-2.2975784604	-0.333898
C	 0.6882375892	-0.5880424211	-1.2612097791	-0.204599
C	 0.2565135332	-2.0482660195	-1.1483670805	 0.448918
O	 0.7995625045	-3.0597606683	-1.4798585456	-0.347301
O	-1.0038201828	-2.0154685187	-0.5967066029	-0.23609
H	 0.1120861031	 1.7277888926	-0.7938307102	 0.300302
H	 0.3940287319	-0.4465163195	 0.9301514336	 0.110468
H	-2.175716751	-0.5455437357	 0.2845676384	 0.104314
H	-2.1684738203	-0.6826193429	-2.4223997799	 0.12606
H	-2.0192434592	 0.9645667705	-1.7635957467	 0.120041
H	-0.013832753	-0.3340467867	-3.2114153209	 0.244646
H	 1.7546320678	-0.437734631	-1.4123682219	 0.105726
