16
0 0
C	 0.0128691578	 1.4398852254	 0.0859852049	-0.329112
N	-0.0094209614	-0.00615987	 0.0501299704	-0.278154
C	-1.1101599008	-0.6246783861	-0.0722669709	 0.378606
N	-2.3749809698	 0.017515367	-0.1814247388	-0.291101
C	-3.395856034	-0.7166249336	-0.2985882215	 0.117727
O	-3.4142882433	-2.0795143502	-0.3320115277	-0.218717
C	-2.1650370214	-2.674339233	-0.2233191389	 0.397687
C	-2.2691873266	-4.161138379	-0.2680689642	-0.471566
N	-1.0778575366	-2.0367293947	-0.101900419	-0.301313
H	 0.6593844466	 1.7999377801	-0.7236656452	 0.125514
H	-0.9691076463	 1.9170154066	 0.0001802598	 0.126869
H	 0.4870437249	 1.7593221106	 1.0220886749	 0.12552
H	-4.4024951908	-0.3159411392	-0.3880284979	 0.149247
H	-2.7338471949	-4.4796347535	-1.2069756113	 0.152217
H	-1.2739301842	-4.593956574	-0.1805259279	 0.164357
H	-2.9058531991	-4.5203762566	 0.5470990833	 0.152217
