18
0 0
C	 0.0068865481	 1.5697536456	-0.1532848813	-0.52815
C	-0.0085763528	 0.0846077457	-0.0835346238	 0.387455
C	-0.0105499942	-1.0481520132	-1.0713382243	-0.153113
C	 1.2401862712	-1.5963933013	-0.4136019806	-0.17987
N	 0.9111966558	-0.7869616113	 0.8264424805	-0.204626
C	-0.359751141	-1.4945669924	 1.3045816059	-0.182203
C	-0.861318682	-0.9430162774	 2.5508903203	 0.340082
C	-1.3039410518	-0.4982400604	 3.5761253163	-0.438273
C	-1.0642571235	-0.970363462	 0.0567008078	-0.122849
H	 0.9860534727	 1.943053403	-0.4724277335	 0.128711
H	-0.7413388425	 1.9227990874	-0.870820899	 0.125072
H	-0.2228204327	 2.0080071087	 0.8232785858	 0.14026
H	-0.3080092487	-1.0317044545	-2.1133124575	 0.091476
H	 1.3435787981	-2.6738693716	-0.2404729223	 0.098723
H	 2.1601028042	-1.2090866147	-0.8591085057	 0.109847
H	-0.228123457	-2.5793122657	 1.4030796853	 0.095921
H	-1.6831336303	-0.1051544618	 4.4867257224	 0.194122
H	-2.1247686637	-0.8979514741	-0.1492915364	 0.097414
