17
0 0
C	-0.1777576985	 1.5351823647	 0.1060940503	-0.379975
C	 0.0631603468	 0.0281630469	 0.0634189435	-0.296003
C	 0.7687297718	-0.5042400121	 1.2977907075	 0.34694
O	 1.1880357696	 0.1843216012	 2.1928516358	-0.281483
C	 0.8655831752	-2.0330067635	 1.3579156264	-0.086387
O	 1.587694615	-2.5504244564	 2.4796954162	-0.266099
C	 0.4304939274	-3.1650711303	 3.0834971744	-0.179626
C	-0.4189164356	-2.7083628026	 1.8946911311	 0.331477
O	-1.5495724163	-2.8023635801	 1.5337871732	-0.263397
H	 0.7652241738	 2.0765413577	 0.2136121961	 0.136308
H	-0.6708604315	 1.8716404203	-0.8096278144	 0.115835
H	-0.808132788	 1.8056941853	 0.9570690671	 0.134034
H	-0.8762200902	-0.532530579	-0.047625454	 0.145982
H	 0.6676096706	-0.2523614773	-0.8109300923	 0.127481
H	 1.2153194851	-2.4353701244	 0.3973780552	 0.125069
H	 0.5314567477	-4.2505573328	 3.202313899	 0.140482
H	 0.1586153572	-2.7100157175	 4.0441794549	 0.149361
