19
0 0
O	-0.2179058151	 1.5915282276	 0.2722684437	-0.431368
C	-0.0776568653	 0.2122275483	 0.1018004312	 0.078557
C	 0.2548607173	-0.726643762	 1.2927792608	 0.060555
C	-0.1483762855	-0.2138089173	 2.6672508231	-0.270706
C	-1.5509533063	 0.3225733999	 2.8079190502	-0.068627
C	-2.5589431442	 0.3288103101	 1.9281336131	-0.068622
C	-2.6129288235	-0.198536911	 0.5161479662	-0.270708
C	-1.309221668	-0.7169608086	-0.0723726689	 0.060556
O	-0.6805490166	-1.7058873962	 0.7789405019	-0.300343
H	-0.8446424248	 1.7428381578	 0.9914242944	 0.288589
H	 0.6343752189	 0.0748392363	-0.7149627331	 0.101087
H	 1.272622724	-1.1315844285	 1.3266181726	 0.076089
H	-0.0163339799	-1.0282564602	 3.3940633113	 0.124704
H	 0.5681328402	 0.5638497783	 2.9696912192	 0.117315
H	-1.7569813936	 0.7458157378	 3.790043054	 0.092407
H	-3.5012048918	 0.7566081991	 2.2676643993	 0.092407
H	-3.3566512589	-1.0075364147	 0.4785757139	 0.124702
H	-3.0039371882	 0.5860043294	-0.1480942528	 0.117317
H	-1.4831716188	-1.1145250561	-1.07867545	 0.076089
