18
0 0
C	 0.0205612813	 1.4492764213	-0.0592303323	-0.498961
C	 0.0215644295	-0.0062416945	-0.060264979	 0.086297
C	 0.031286194	-1.2096473592	-0.0615799459	 0.071225
C	 0.0053671319	-2.6669517557	-0.0254508625	-0.052595
C	-1.4149451358	-3.2375750176	-0.0057726363	-0.397173
O	 0.7046398296	-3.1465367864	-1.2043700462	-0.267864
C	 1.3586684485	-4.325713162	-1.0549737081	 0.505311
N	 1.9302866345	-4.6867775996	-2.2422169627	-0.56274
O	 1.4044180956	-4.9751350685	-0.0348263388	-0.402486
H	 1.0399485817	 1.847620979	-0.1055396014	 0.151004
H	-0.5339913834	 1.8492428021	-0.9150750882	 0.150073
H	-0.446734526	 1.8409548986	 0.8509538544	 0.151677
H	 0.552837793	-3.0372400295	 0.8466819229	 0.136978
H	-1.9552179104	-2.860045649	 0.8665537622	 0.127229
H	-1.9563529219	-2.941116418	-0.9076175113	 0.128317
H	-1.3694868225	-4.327563828	 0.052555245	 0.139756
H	 2.031919174	-3.9901077142	-2.9606282966	 0.265676
H	 2.6082044163	-5.4280050588	-2.2002122652	 0.268277
