23
0 0
C	-0.1416275175	 1.5443811181	 0.0622660907	-0.404105
C	 0.0965239514	 0.0409438654	-0.0566863361	 0.040546
C	 1.2084079178	-0.3638431433	-1.0361459267	-0.242113
C	 1.464305612	-1.8414710629	-0.7055536023	 0.10271
O	 2.7758805099	-2.2905509098	-1.057853517	-0.441125
C	 1.2378934125	-1.9688879624	 0.8355280321	-0.024691
C	 2.524685901	-2.2259988884	 1.6343358648	-0.057748
O	 3.0848469968	-3.4999863219	 1.3957129521	-0.434735
C	 0.5534405985	-0.6407657766	 1.2499668504	-0.233624
H	 0.7728545097	 2.0603182225	 0.3776185388	 0.113812
H	-0.4574904156	 1.9782972672	-0.8925129264	 0.11122
H	-0.9198261967	 1.7650151292	 0.8006902079	 0.113864
H	-0.8384178687	-0.4349046604	-0.3865354203	 0.071952
H	 0.9501350402	-0.1946337271	-2.0872846108	 0.084405
H	 2.122146947	 0.2057792651	-0.8199224371	 0.102688
H	 0.7217973613	-2.4629651948	-1.2263273303	 0.071316
H	 2.8610445394	-2.2627095525	-2.0151331649	 0.2883
H	 0.576434778	-2.8197157609	 1.0251375858	 0.077898
H	 3.2490403955	-1.4198594652	 1.4325729887	 0.082687
H	 2.287358104	-2.1835844897	 2.7037537424	 0.097723
H	 3.3012003512	-3.507124244	 0.4547533217	 0.287381
H	 1.2848876335	 0.0093582284	 1.7504701255	 0.094301
H	-0.2670846812	-0.792952576	 1.9569132908	 0.097337
