16
0 0
C	 0.0291829116	 1.3682154739	-0.070314143	-0.326688
N	-0.0074716259	-0.0545644175	 0.2006626138	-0.39881
C	-1.2147611708	-0.7202381094	 0.0890801421	 0.228377
C	-2.4874563915	-0.190163091	 0.0634258649	-0.165856
N	-3.3805128102	-1.2499689511	 0.0055657473	-0.243607
C	-2.7208412778	-2.4294157855	-0.0200896162	-0.158402
C	-1.3621450819	-2.1519137134	 0.0299864412	 0.086027
C	-0.2987247625	-3.0791466577	 0.0117845424	 0.187091
N	 0.6091689117	-3.8012627404	-0.0095782806	-0.373632
H	 1.0601524245	 1.721105194	 0.0003516962	 0.129992
H	-0.3683506579	 1.6347039031	-1.0632668472	 0.111247
H	-0.5580174209	 1.906927498	 0.6826481195	 0.129799
H	 0.7759546964	-0.5748342925	-0.1660801955	 0.250092
H	-2.8325244849	 0.8282558541	 0.0907905875	 0.125331
H	-4.3799296322	-1.1519858393	-0.020146657	 0.271854
H	-3.2322659578	-3.3758406953	-0.0736613653	 0.147183
