18
0 0
C	 0.0451527474	 1.4987131767	 0.0067418665	-0.340412
C	 1.3629424648	 0.7415909075	-0.009457795	-0.343121
C	 0.0667015722	 0.0002398654	 0.0017534584	 0.414445
C	-0.5695372591	-0.9177484165	 1.0514193186	-0.17703
C	-0.0689490291	-2.347232974	 0.7409511465	-0.044237
C	-0.0846094448	-2.3425210001	-0.7494538157	-0.044234
C	-0.5913956029	-0.9110818097	-1.0402323309	-0.177035
C	-1.6793304495	-1.3033597099	 0.0158353201	 0.029753
N	-1.3028147453	-2.7915173194	 0.0072203034	-0.185559
H	-0.2361098717	 2.0096129913	 0.9222372835	 0.11314
H	-0.2552016156	 2.0153983348	-0.8993938177	 0.11314
H	 1.9434834384	 0.7534334454	-0.9264804213	 0.112742
H	 1.9625461623	 0.7476604777	 0.8952727222	 0.112741
H	-0.7504619004	-0.6185933426	 2.0817869555	 0.072575
H	 0.508902262	-3.0274638886	 1.3542042729	 0.094187
H	 0.4801647411	-3.0188292716	-1.3790114685	 0.094189
H	-0.7937930313	-0.6053586087	-2.0646603362	 0.072571
H	-2.7192870884	-0.9864912375	 0.0277117077	 0.082144
