18
0 0
C	-0.0178492558	 1.6024102121	 0.1726276078	-0.37954
C	-0.0321632937	 0.0655520141	-0.0228254492	-0.303186
C	 0.7714145915	-0.591056779	 1.0250922964	 0.289332
N	 1.4170298489	-1.0896549992	 1.8430293657	-0.32391
C	-1.3929513836	-0.472350484	-0.0576931197	 0.090898
C	-2.5219461165	-0.8914286368	-0.0891196276	 0.088459
C	-3.8639951658	-1.3933586307	-0.1227441705	-0.158935
C	-4.3022339615	-2.3371703205	-1.2329892759	-0.252548
C	-4.1354986537	-2.8634934691	 0.1600744124	-0.250006
H	 1.0092410936	 1.9750704562	 0.1689048131	 0.137616
H	-0.5748164451	 2.0735092302	-0.6399314067	 0.137099
H	-0.487867471	 1.8688835182	 1.1212966202	 0.148353
H	 0.4635044926	-0.1586075039	-0.9778928591	 0.153194
H	-4.618744854	-0.6973427673	 0.2313414878	 0.114603
H	-5.3048035083	-2.206047022	-1.6238263819	 0.122238
H	-3.5578473896	-2.6062890886	-1.9726646934	 0.128625
H	-3.2770910315	-3.4896393779	 0.3708332727	 0.134282
H	-5.0220491166	-3.0974609118	 0.7381832378	 0.123427
