15
0 0
N	 0.0457578047	 1.3741641498	 0.1678058094	-0.576736
C	 0.0323460515	-0.0134923143	 0.0599828978	 0.319627
N	-1.1404975763	-0.6383355882	 0.1259239986	-0.342349
C	-1.1479165246	-1.975039695	 0.0601894055	-0.017185
C	-0.0038894025	-2.7454827466	-0.085430926	-0.270925
C	 1.206260647	-2.0655359751	-0.1381725999	 0.266931
F	 2.3596821207	-2.7421456873	-0.2560049193	-0.090138
C	 1.2691266277	-0.6848212006	-0.0584534386	 0.099105
N	 2.4714217407	 0.0386684776	-0.1342529444	-0.617574
H	 0.7224644746	 1.8241343986	-0.4364517225	 0.253694
H	-0.8821611433	 1.7641832507	 0.0691780556	 0.253631
H	-2.1230882553	-2.4504305908	 0.1153010497	 0.107756
H	-0.0328597141	-3.8254051009	-0.1494698582	 0.107283
H	 3.2807542034	-0.5677055658	-0.0934558994	 0.253009
H	 2.5332310056	 0.7485153778	 0.5880786719	 0.253871
