18
0 0
C	 0.7749972047	 0.4863427776	-0.420405736	-0.462433
C	-0.3524516473	 0.4603313501	 0.5874395111	 0.374929
O	-0.353266868	 1.1323542545	 1.5912450426	-0.28767
C	-1.563470144	-0.4331816338	 0.2770145554	-0.263171
N	-1.1918914961	-1.6079133403	-0.5047400932	-0.082498
C	-1.0744232896	-2.8796229536	 0.1633513528	-0.254942
C	-2.1807276331	-2.6451279639	-0.83285079	-0.085863
C	-3.57755261	-2.6037536963	-0.3227260548	 0.157427
O	-4.5167603	-3.0485172187	-0.9344070606	-0.258962
H	 1.4944452327	 1.2563939405	-0.1403681583	 0.138617
H	 1.2665854643	-0.4909696414	-0.4577390165	 0.149779
H	 0.3877947194	 0.6688151986	-1.4281367938	 0.142918
H	-2.0559802946	-0.6460614162	 1.2348481618	 0.124078
H	-2.2540212995	 0.1759620901	-0.3224132068	 0.141633
H	-0.2393128024	-3.5127587872	-0.1229786647	 0.13741
H	-1.3585560205	-2.9363854592	 1.2144901927	 0.128961
H	-2.0924868986	-3.057184832	-1.8346538169	 0.119335
H	-3.7080448974	-2.1433604087	 0.6810743152	 0.080451
