23
0 0
C	 0.0854992332	 1.4839860054	 0.3023352651	-0.376626
C	-0.0636641655	 0.0258651936	-0.152464632	-0.298736
C	-1.482434318	-0.4849980873	-0.1133206978	 0.388599
C	-2.6062887838	 0.1142445435	-0.9630379924	-0.275305
C	-3.7429891654	-0.8191659506	-0.4854071849	-0.046667
C	-3.1179327871	-2.2152394886	-0.7198997576	-0.22315
C	-1.8185488371	-1.960516357	 0.036401707	-0.115015
C	-2.1460122244	-0.9886640079	 1.1601850841	-0.095281
C	-3.6355204585	-0.6786969277	 1.0527462601	-0.221751
H	 1.1337972976	 1.7980093241	 0.2791802268	 0.107963
H	-0.477872283	 2.1644626008	-0.3444750574	 0.116235
H	-0.2838515283	 1.6170175888	 1.3247273009	 0.115331
H	 0.3335970875	-0.0780170893	-1.1718718186	 0.092216
H	 0.5632794483	-0.6152710829	 0.4804181831	 0.091872
H	-2.8048695786	 1.1667378761	-0.7326812302	 0.089665
H	-2.4121889448	 0.0280643944	-2.0385802739	 0.086678
H	-4.7275450729	-0.6483969161	-0.92023905	 0.057824
H	-3.7158021247	-3.0246135445	-0.2866178403	 0.090387
H	-2.9607884795	-2.432403146	-1.782138568	 0.08974
H	-1.040551187	-2.7066057188	 0.1387740006	 0.072961
H	-1.615586322	-1.0109464298	 2.1039104081	 0.07308
H	-3.8912181213	 0.3272422632	 1.4030306139	 0.090013
H	-4.2643078047	-1.4004824833	 1.5857616236	 0.089969
