23
0 0
C	-0.0584444011	 1.5377113992	-0.0102952104	-0.410055
C	-0.004720483	 0.0265930599	 0.0365148012	-0.045476
C	 1.2745001694	-0.7176502184	-0.246996357	-0.344902
C	 0.6991279749	-0.7054834103	 1.1616569171	 0.282504
C	 1.4030819584	 0.0382806695	 2.3073555931	-0.297636
C	 1.5863595881	-1.0237186087	 3.4238863689	-0.266167
C	 0.6320875432	-2.118479337	 3.0166814989	-0.17954
C	 0.1525545271	-1.9570756433	 1.7796228623	 0.283625
C	-0.7846301625	-2.8802257396	 1.0643965571	-0.508039
H	 0.8739180487	 1.9846333823	 0.3478929644	 0.116471
H	-0.2216184557	 1.891447179	-1.0344657868	 0.114741
H	-0.8727091633	 1.930141041	 0.6096546614	 0.115691
H	-0.9069172947	-0.4545024578	-0.3345662504	 0.076855
H	 1.2281073209	-1.6344204052	-0.8259106684	 0.105001
H	 2.1751729239	-0.1337150195	-0.4141644782	 0.105477
H	 2.3495436529	 0.4919877937	 2.0018452692	 0.094939
H	 0.7617448748	 0.8481245714	 2.6733808653	 0.102666
H	 2.6189165891	-1.3992565617	 3.4635183275	 0.102252
H	 1.3730012475	-0.6177563989	 4.4194961784	 0.098294
H	 0.402242596	-2.9634828054	 3.6575038138	 0.07956
H	-1.0099603355	-3.7602430746	 1.6724085632	 0.122548
H	-1.7339916717	-2.3852198512	 0.8249069383	 0.126843
H	-0.3643700475	-3.2296008744	 0.1129464111	 0.124346
