14
0 0
O	-0.0331682784	 0.0017624112	-0.1124689782	-0.326977
C	 0.0406528741	 1.1964170973	 0.0760985592	 0.134131
N	 1.1959872372	 1.8778271133	 0.2863199849	-0.043308
C	 1.5542744555	 3.2654307113	 0.0068856488	-0.01733
C	 2.7614565119	 2.8893946673	-0.7800149919	-0.103529
C	 2.9332046804	 3.4867258656	 0.6446391618	-0.235357
C	 3.3891768451	 2.124537214	 1.0926850747	 0.492466
O	 4.2199874483	 1.725937948	 1.8512361822	-0.321209
C	 2.5759213602	 1.4798089242	-0.0665583366	-0.192781
H	-0.839433529	 1.8686125718	 0.136896129	 0.074975
H	 0.833485946	 4.0629716027	-0.1159225707	 0.136996
H	 3.2036570822	 3.2025970776	-1.7138219573	 0.135878
H	 3.30467052	 4.4636599161	 0.9210275971	 0.12865
H	 2.7332254365	 0.4801915494	-0.4562927331	 0.137396
