22
0 0
C	 1.024252011	 0.7161706661	 0.3455202901	-0.326599
N	 0.6837515677	-0.6445212373	-0.0766495132	-0.296314
H	 1.8728400009	-1.8976280791	-0.2827726641	 0.307896
H	 0.1893523124	-1.1091529723	 0.681204241	 0.23926
C	-0.1559572722	-0.694551191	-1.2809234504	-0.133818
C	-0.2928512653	-2.1149749881	-1.8528118333	-0.014634
C	-1.3747468021	-2.1183806957	-2.9438073207	-0.39878
C	 1.0374735419	-2.6722211662	-2.4278595974	-0.323618
C	 1.9752000409	-3.4188152408	-1.4713454009	 0.376603
O	 2.3385779043	-2.7756089281	-0.3570219937	-0.383196
O	 2.3868830604	-4.5237235858	-1.7217242304	-0.332241
H	 1.6605097508	 1.1816309446	-0.4131503415	 0.138582
H	 0.1413006701	 1.3576808947	 0.4904047506	 0.113655
H	 1.5853878632	 0.67789231	 1.2824956665	 0.13682
H	-1.1556479716	-0.2724971908	-1.0861451249	 0.092655
H	 0.3126104688	-0.0493834424	-2.0352214541	 0.112885
H	-0.6323470951	-2.7770180128	-1.0433338866	 0.087358
H	-2.3296683935	-1.7436544414	-2.5612433889	 0.114002
H	-1.0812872745	-1.4862557284	-3.7902592102	 0.120044
H	-1.5373390662	-3.1295982968	-3.326585094	 0.128713
H	 0.8205719526	-3.3861527724	-3.2243029559	 0.126821
H	 1.6036419153	-1.8490033461	-2.8853892682	 0.113907
