17
0 0
C	-0.3587430492	 1.0378093147	-0.3383825191	-0.25044
C	 1.0204274128	 1.1613557699	 0.2573991028	-0.285432
C	 0.4110516182	-0.1988707589	 0.0613626875	 0.029095
N	-0.0012237516	-0.9032960641	 1.2393396048	-0.382902
C	-0.9826009511	-1.8690103176	 1.1592221468	 0.451171
N	-1.036972277	-2.8442684051	 2.0456638373	-0.251397
O	-2.1750352964	-3.5890626875	 1.7060869158	-0.167689
C	-2.7419267943	-3.0410135549	 0.6276932221	 0.08948
C	-2.0533259306	-1.9500661989	 0.2134075168	-0.330671
H	-1.1980820337	 1.3155132252	 0.2879625029	 0.12762
H	-0.4872398457	 1.2375173091	-1.3962052627	 0.116546
H	 1.8440108101	 1.4462538584	-0.3867083677	 0.119547
H	 1.0905925328	 1.525318023	 1.2760021802	 0.124699
H	 0.8131998254	-0.8049299857	-0.7514306922	 0.093817
H	 0.7454286503	-1.1586822335	 1.8718896441	 0.249003
H	-3.6319270714	-3.5313716962	 0.262920945	 0.145789
H	-2.2625732586	-1.299886418	-0.6176550244	 0.121765
