18
0 0
C	 0.0781011225	 1.499276788	-0.3352079684	-0.449568
C	 0.0113683796	 0.0223815011	 0.0017798875	 0.360668
C	 1.241623374	-0.8401721038	-0.1324422002	-0.325736
C	 0.7084566408	-0.4890866705	 1.2358246323	-0.26371
N	-1.230869757	-0.6233251592	-0.3439058028	-0.371103
C	-2.3896380061	-0.409718949	 0.348529656	 0.292175
O	-2.4703068918	 0.26671798	 1.3568432556	-0.364662
C	-3.5429105522	-1.0910048528	-0.233827538	 0.205604
C	-4.5136582796	-1.6355183863	-0.6888497105	-0.401962
H	 1.0472198228	 1.917491237	-0.0481205459	 0.115498
H	-0.0581172068	 1.6645454629	-1.4098211864	 0.111167
H	-0.7037845038	 2.0420445525	 0.2029661043	 0.150423
H	 1.1114224759	-1.8606587011	-0.4766463904	 0.113251
H	 2.1523973276	-0.3625254954	-0.4763236202	 0.117557
H	 1.2522637442	 0.2312050565	 1.8360613328	 0.120578
H	 0.2122336282	-1.266681602	 1.8027159805	 0.127884
H	-1.2958038588	-1.1118918216	-1.2239292104	 0.253485
H	-5.3800858696	-2.1109627161	-1.0796638058	 0.208451
