21
0 0
C	-0.0660612543	 1.5666347113	-0.4020442668	-0.442919
C	 0.0632982728	 0.0681234595	-0.1643375846	 0.065661
C	 1.2499173111	-0.767107116	-0.7531254208	-0.059659
C	 2.1624368493	-0.137552095	 0.3413474366	-0.23599
C	 0.8369775099	-0.5141660379	 1.0675422923	-0.088244
C	 0.9306817158	-1.8744732868	 0.3020900624	 0.067744
C	-0.2691919095	-2.8224494981	 0.1695959266	-0.417177
C	-0.0472924919	-3.8413188414	-0.8515012484	 0.314794
C	 0.1621451306	-4.6685909905	-1.6982893592	-0.461966
H	 0.866139841	 2.1197280338	-0.2672289133	 0.118182
H	-0.4183578813	 1.7584704486	-1.4218221607	 0.117676
H	-0.8062176619	 1.9966316429	 0.2822477368	 0.115897
H	-0.9179393002	-0.3857085945	-0.3253007779	 0.059192
H	 1.4925985012	-0.9210029746	-1.8059213227	 0.072045
H	 3.0482153577	-0.7137316293	 0.6223899017	 0.089994
H	 2.4036783943	 0.9209922404	 0.2507520998	 0.093158
H	 0.6013049041	-0.371387781	 2.1246459066	 0.063745
H	 1.8096228846	-2.4668889548	 0.5763057102	 0.073305
H	-0.4336075068	-3.3121630537	 1.1389232621	 0.128921
H	-1.1965482004	-2.2859766864	-0.0546993506	 0.13229
H	 0.3349856639	-5.4043044564	-2.4438023102	 0.193352
