19
0 0
C	-0.240992114	 1.4876240112	-0.0277321124	-0.393716
C	-0.0252327949	-0.0229468515	-0.0076963756	 0.021829
C	 1.1574841179	-0.5132797952	-0.8932493479	-0.231376
C	 2.0523137939	-0.5997792086	 0.3895234518	-0.200462
C	 0.7402904142	-0.5445097121	 1.2434643538	-0.231377
C	 2.9368604765	-1.7292948586	 0.5457073184	 0.386781
C	 3.667094161	-2.6879555885	 0.6742269795	-0.229814
C	 4.4842841513	-3.7656117512	 0.8178865026	 0.296059
C	 5.2107907705	-4.7223538872	 0.9454679886	-0.572989
H	 0.692164427	 2.0307938516	 0.1623358373	 0.115316
H	-0.6230547522	 1.8175090092	-0.9998327997	 0.116823
H	-0.9622990344	 1.7920974925	 0.7382882952	 0.116824
H	-0.9744576407	-0.5300647742	-0.2004517118	 0.072659
H	 0.9809246613	-1.5037661164	-1.3176669156	 0.11407
H	 1.5062155618	 0.1557524426	-1.6838442814	 0.104516
H	 2.6205974622	 0.3281420892	 0.5140544983	 0.108887
H	 0.7624436045	 0.1001196495	 2.1256334795	 0.104516
H	 0.4225025116	-1.545541662	 1.5423107511	 0.114069
H	 5.8491651224	-5.5628837804	 1.0576620784	 0.187387
