19
0 0
O	-0.2963333518	 0.2631898688	 0.5913577143	-0.332037
C	-0.1012483626	 1.3363651581	 0.1158572713	 0.452975
O	-1.0102364929	 2.1678502989	-0.479564096	-0.259529
C	 0.0110250698	 3.2082941305	-0.7111172224	 0.125779
C	-0.3483007865	 4.5160750861	-0.026711581	-0.214854
C	-0.0510698012	 4.5010377678	 1.4777800163	-0.210999
C	 1.4255148541	 4.1600837239	 1.7117992379	-0.188483
C	 1.7672908803	 2.7258463424	 1.2695717683	-0.230422
C	 1.0809584057	 2.2944545833	-0.0492650993	-0.222121
H	 0.1325271396	 3.3366579968	-1.7895701248	 0.09435
H	 0.2359709789	 5.3171246554	-0.4981000775	 0.103696
H	-1.4028570849	 4.7326368525	-0.2290275442	 0.118084
H	-0.2906234101	 5.4788258809	 1.9073272652	 0.100896
H	-0.6939371131	 3.7697655523	 1.9839468388	 0.115798
H	 2.0416859789	 4.8782790383	 1.1540525384	 0.095871
H	 1.6911381673	 4.2802260217	 2.7669200431	 0.102941
H	 2.8512700484	 2.6182253093	 1.1742667569	 0.107593
H	 1.4613435677	 2.0210255083	 2.0509568492	 0.128379
H	 1.8046209225	 1.9016041248	-0.7664992246	 0.112083
