17
0 0
O	 0.029190071	 1.3306635089	 0.0334869617	-0.349927
N	 0.0257143362	-0.0473853349	 0.0038471772	-0.184618
C	-1.128110107	-0.6044747766	 0.0466127598	 0.310321
C	-1.1257392334	-2.1129440823	-0.016899254	-0.287021
C	-2.1653596791	-2.5812383469	-1.0408646851	-0.222022
C	-3.5162349883	-1.9954025095	-0.6625073182	-0.068207
O	-3.4910403224	-0.5662518156	-0.5467774632	-0.260595
C	-2.4582429375	 0.0748197847	 0.0932924595	 0.317568
N	-2.6380292807	 1.2048230574	 0.6357287763	-0.482502
H	 0.9690884436	 1.529015428	-0.0529500804	 0.309521
H	-0.116883118	-2.4538455606	-0.2570334015	 0.124099
H	-1.3877494729	-2.5235093992	 0.9690492714	 0.115088
H	-1.8825038944	-2.2478718504	-2.0457630612	 0.119217
H	-2.2367651897	-3.6738207579	-1.0596724427	 0.10864
H	-4.2796193666	-2.2045046909	-1.4158794257	 0.120563
H	-3.8579661105	-2.4195573422	 0.2929956413	 0.107857
H	-3.6245230604	 1.463704438	 0.5500735447	 0.222018
