27
0 0
C	-0.1300832407	 1.5247652723	-0.0771284475	-0.40829
C	 0.0561542578	-0.0025561983	-0.0343201571	 0.018686
C	 0.7299717047	-0.4577279837	-1.3415082312	-0.40763
C	 0.775767398	-0.5371359074	 1.2513939821	 0.291663
C	 0.8031209836	-2.0816706503	 1.2307437264	-0.433017
C	 2.2273856669	-0.0208634366	 1.3461803214	-0.427793
C	 0.0259038443	-0.0578590628	 2.5318161166	 0.117506
C	-1.4523317442	-0.4476658204	 2.6217477837	-0.423408
O	 0.7369265102	-0.5961083657	 3.6514721568	-0.443394
H	 0.8307406166	 2.0500108145	-0.0735726202	 0.117305
H	-0.6508837211	 1.8105975107	-0.9971996819	 0.108007
H	-0.7208782504	 1.9063738854	 0.759868265	 0.111647
H	-0.9459140012	-0.4515477033	-0.0329965643	 0.069719
H	 1.7227296162	-0.0123664772	-1.4635750478	 0.115826
H	 0.8381685597	-1.5433661069	-1.3999576554	 0.114208
H	 0.1268739773	-0.1416563053	-2.1991843557	 0.107557
H	 1.5365860951	-2.4559592805	 0.5117894295	 0.108398
H	 1.0768946038	-2.463711995	 2.2162615028	 0.132067
H	-0.1697922151	-2.5043387769	 0.9576705547	 0.101718
H	 2.2676172923	 1.0719721999	 1.4031855176	 0.103025
H	 2.7059365074	-0.4133344508	 2.245109424	 0.132724
H	 2.8184308648	-0.3347117315	 0.4814940805	 0.105136
H	 0.0978574256	 1.0396164228	 2.5661291204	 0.062055
H	-2.0500724787	 0.0042683335	 1.8257272874	 0.121689
H	-1.5787463592	-1.5328200693	 2.5811557371	 0.126856
H	-1.8694533875	-0.0982589615	 3.5741154843	 0.099293
H	 0.2886042741	-0.3041798157	 4.4505952509	 0.278445
