21
0 0
C	 0.0594321874	 1.5572925305	 0.1188001664	-0.409038
C	-0.0014690253	 0.0411257832	-0.0429906901	 0.120535
O	 0.7854545382	-0.6033256498	 0.9755253925	-0.441775
C	-1.4368603901	-0.5172472548	-0.055119853	-0.08736
C	-2.2441350022	-0.1354896456	-1.2765032057	-0.075632
C	-2.8683218167	-1.1784400522	-1.8187618156	-0.070083
C	-2.6190375351	-2.4548290367	-1.0596951429	-0.261591
C	-1.4947325972	-2.088850492	-0.0625449631	 0.105597
O	-0.2968856976	-2.6792298566	-0.5350755883	-0.440818
H	 1.1008265707	 1.8872952158	 0.1639961351	 0.126583
H	-0.4274687261	 2.0696999626	-0.7159538086	 0.124978
H	-0.4417519681	 1.8733254739	 1.0424767579	 0.106519
H	 0.4891362255	-0.249697614	-0.9762892451	 0.108421
H	 0.3921380311	-0.3924571729	 1.8301773139	 0.28088
H	-1.9381223679	-0.1430472333	 0.8540644067	 0.060855
H	-2.3036237077	 0.8831457525	-1.6442311219	 0.090901
H	-3.5110878971	-1.1334102918	-2.6914270102	 0.091979
H	-3.5272848925	-2.7907972222	-0.542183395	 0.101508
H	-2.2902996325	-3.2836810709	-1.6954006999	 0.122301
H	-1.7244249468	-2.4626737348	 0.945185437	 0.054315
H	 0.4011290698	-2.3754835808	 0.0620812799	 0.290923
