21
0 0
C	-0.0308634549	 1.4444159652	 0.0959192151	-0.507555
C	-0.0626682403	-0.0420320185	-0.0657350801	 0.410336
C	 0.5812957743	-0.946247805	-1.1466202805	-0.301832
C	 0.036944765	-1.8462540665	-0.0085354386	 0.382417
C	 0.2495296632	-3.3080981247	 0.2380399963	-0.514457
O	 0.6129708162	-0.8811938512	 0.967995224	-0.380331
C	-1.2791876631	-1.0134515417	-0.0131175437	-0.03787
C	-2.1458109243	-1.0040747558	 1.2254282321	-0.129111
O	-2.9479751758	 0.17503882	 1.1710193913	-0.426876
H	 1.0009376309	 1.8021749705	 0.1662791021	 0.12432
H	-0.5084099961	 1.922898557	-0.7648553049	 0.126019
H	-0.57879608	 1.7407288968	 0.9938194932	 0.139735
H	 0.1004200602	-1.0028497966	-2.1273460635	 0.087898
H	 1.6697208381	-0.8910132433	-1.2044564597	 0.098087
H	 1.3187819436	-3.5385237304	 0.2679137467	 0.133451
H	-0.1954822984	-3.6119621655	 1.1906677746	 0.130278
H	-0.2095723804	-3.898172608	-0.5615184126	 0.125682
H	-1.8788099215	-1.0665300002	-0.9277898607	 0.068397
H	-2.7779570492	-1.9067959086	 1.2466934243	 0.079586
H	-1.5027327018	-1.0124860639	 2.1140371381	 0.105506
H	-3.4681604456	 0.2176406705	 1.9787196865	 0.28632
