24
0 0
C	-0.2714588545	 1.5393032817	-0.3766654019	-0.373298
C	-0.0985768412	 0.1530531141	 0.2401849458	-0.115337
N	-1.3042975852	-0.6424583923	 0.0305195742	-0.10742
C	-1.3852547693	-1.4797487228	-1.1625417738	-0.308883
C	-1.2888460205	-2.0957134109	 0.2002493215	 0.30072
C	-0.0146525095	-2.8279302661	 0.5879046006	-0.468302
C	-2.5309454063	-2.6956364765	 0.8743792882	 0.077221
C	-3.8265244367	-1.9150293648	 0.6736023769	-0.408531
O	-2.6824501671	-4.0624708807	 0.482696551	-0.426337
H	 0.6127298845	 2.1575663003	-0.1927773497	 0.11012
H	-0.4154748037	 1.4682360989	-1.4598610019	 0.117488
H	-1.1452939069	 2.0423482613	 0.0466011756	 0.124803
H	 0.8053208335	-0.3216040174	-0.1746520641	 0.083181
H	 0.0570302511	 0.2439092446	 1.3219481305	 0.102726
H	-2.321429414	-1.4379116665	-1.7139683118	 0.106186
H	-0.4983669803	-1.5552694406	-1.7923677101	 0.102569
H	 0.8429234692	-2.5402139856	-0.0230652498	 0.1133
H	 0.2360631955	-2.6399815944	 1.6388518391	 0.116793
H	-0.1739938007	-3.9027048488	 0.4738816468	 0.139204
H	-2.3214166721	-2.7517459737	 1.9511214243	 0.084309
H	-4.1343580038	-1.9209885065	-0.3788038178	 0.101976
H	-4.6250713301	-2.3820125204	 1.2557869496	 0.116896
H	-3.7068937644	-0.8747722658	 0.9809516849	 0.135133
H	-2.8808772378	-4.0653819674	-0.4608117882	 0.275486
