15
0 0
O	-0.0652706602	 0.0171844155	 0.051636763	-0.241953
C	 0.0479860739	 1.2154967721	-0.0049941103	 0.033152
C	 1.3576630623	 1.9193435273	 0.0016378591	 0.278302
C	 2.7839116715	 1.3529587451	 0.0770040461	-0.323159
C	 2.9638997131	 2.8810056505	 0.0035416094	-0.040097
C	 1.7782762459	 3.0616966453	-1.0268112457	-0.237977
C	 1.1541468126	 4.1151618074	-0.1190710542	 0.446326
O	 0.556022994	 5.1437175314	-0.1918299867	-0.323571
C	 1.7148594858	 3.1632968421	 0.9311001175	-0.238091
H	-0.8381474297	 1.8878389825	-0.066663054	 0.089063
H	 3.0661475192	 0.8643144278	 1.0124393804	 0.116971
H	 3.1240866742	 0.7711958902	-0.7828161161	 0.117016
H	 3.8747497519	 3.4776787047	 0.0020815779	 0.10495
H	 1.8314729674	 2.951569728	-2.1078444168	 0.10955
H	 1.697949998	 3.1659808301	 2.0188957605	 0.109518
