16
0 0
O	-0.2054429747	 1.4575307439	-0.2115038296	-0.432355
C	 0.0224502321	 0.0645750517	-0.0244448896	 0.072651
C	-1.3588880814	-0.5778378131	 0.1577205095	-0.227645
C	-1.3275435111	-2.0942801554	 0.0148935598	 0.01904
O	-1.7124461965	-2.6213987268	-1.260780058	-0.253712
C	-0.327382497	-2.7073675557	-0.8703442401	 0.014226
C	 0.6297296428	-1.8108775206	-1.5710608668	-0.08143
C	 0.7818321514	-0.5451001093	-1.1851134506	-0.084604
H	 0.6461392603	 1.9060623091	-0.2093552177	 0.282567
H	 0.6144738125	-0.092854931	 0.8946333623	 0.078395
H	-1.7700682018	-0.2870107456	 1.1284254166	 0.104935
H	-2.0167370149	-0.1689148818	-0.6150836075	 0.134441
H	-1.70226584	-2.6741685739	 0.8575189219	 0.092413
H	 0.0082897969	-3.7258160605	-0.6761029111	 0.092332
H	 1.197743498	-2.2181404928	-2.4027082551	 0.098122
H	 1.4864177134	 0.1094367218	-1.694588144	 0.090626
