17
0 0
C	 0.3018888364	 1.0100437963	 0.5713778481	-0.251895
O	-0.2370649296	 0.2917732801	-0.5327323238	-0.191093
C	 0.5831190138	-0.620548209	-1.0896955937	 0.132471
N	 0.1787024713	-1.3176660283	-2.0556201512	-0.246002
C	 1.0432914074	-2.3111051818	-2.668039031	-0.031538
C	 2.3997705656	-2.6229401518	-2.0323723339	-0.41297
C	 0.1994904061	-3.5780898075	-2.8470121541	 0.160814
O	 0.6408164689	-4.697122531	-2.8371501458	-0.246586
H	 0.5310618054	 0.3429380344	 1.4111440228	 0.129642
H	 1.2070000578	 1.5616725215	 0.2895624654	 0.128081
H	-0.4664315305	 1.719849583	 0.8793690337	 0.149446
H	 1.5779561044	-0.6696403352	-0.6292751639	 0.082944
H	 1.2149434063	-1.9713488854	-3.7056657001	 0.117327
H	 3.0727459516	-1.7618803703	-2.0734477796	 0.114663
H	 2.2859515811	-2.9317808195	-0.9882584208	 0.124801
H	 2.8614782508	-3.4532939303	-2.5699218447	 0.142467
H	-0.8792203669	-3.3655490355	-3.0042351074	 0.097429
