14
0 0
N	-0.071306746	 1.2768335667	-0.4503023932	-0.519532
C	-0.015065324	 0.083428154	-0.0118311368	 0.3887
C	-1.3064587358	-0.6297879498	 0.3470515941	-0.329405
C	-1.1559005875	-2.0276254245	 0.8586306897	-0.059458
C	 0.02466965	-2.631182879	 0.9970614106	-0.165875
C	 1.2878414445	-1.9535012977	 0.6503704071	 0.419462
O	 2.3849255541	-2.4620704502	 0.7589238467	-0.360557
N	 1.1542186321	-0.6505122385	 0.1743871178	-0.397443
H	 0.8565727176	 1.6515467074	-0.6574455559	 0.208866
H	-1.8383079368	-0.0145968997	 1.0834783144	 0.159765
H	-1.9540185858	-0.6212712142	-0.5386113879	 0.159782
H	-2.0721664833	-2.5495033824	 1.1211692094	 0.119926
H	 0.1339197972	-3.6431237994	 1.3671188847	 0.12459
H	 2.0337740736	-0.2059150628	-0.0558550608	 0.251179
