21
0 0
C	-0.0737421449	 1.5622746072	-0.0209084643	-0.430518
C	-0.0031743441	 0.0394185233	 0.0418299185	 0.382099
C	-1.4086379772	-0.5702286267	-0.0484002196	-0.422241
O	 0.785591494	-0.4186473564	-1.0904897266	-0.306912
C	 1.5104491615	-1.5487007134	-0.6632426894	 0.109404
C	 2.5819451796	-1.3842153413	 0.39936669	-0.104514
C	 2.2901244898	-0.1198484857	 1.2035750005	-0.249772
C	 0.780060504	-0.5357420819	 1.2394440244	-0.079442
C	 1.1947182083	-1.9475935918	 0.7352578757	-0.128686
H	 0.9195198332	 2.0142945799	 0.0017005257	 0.121412
H	-0.5648525444	 1.8762239503	-0.9466814785	 0.123137
H	-0.6547143297	 1.9538096113	 0.8202359245	 0.110442
H	-1.8836054591	-0.2767836506	-0.9889698025	 0.119719
H	-1.3641587979	-1.6624099565	-0.0171936691	 0.11838
H	-2.0397998627	-0.2275327387	 0.7785797187	 0.10756
H	 1.6654607636	-2.2869228672	-1.4412884387	 0.096495
H	 3.530081006	-1.9069555486	 0.3397748101	 0.079849
H	 2.7318012427	-0.1701950219	 2.201922326	 0.10024
H	 2.5468235639	 0.8410873377	 0.7487264861	 0.098939
H	 0.2676680905	-0.4457896851	 2.1967427684	 0.069036
H	 0.8744157929	-2.9184736639	 1.08868956	 0.085371
