20
0 0
O	 0.0128046108	-0.0954736303	 0.0245862594	-0.301075
C	-0.0019451716	 1.1109694049	 0.0020521046	 0.372479
C	-1.2917156773	 1.9197315702	 0.0000209844	-0.283913
C	-1.7228601154	 2.2758735777	 1.4453607656	-0.191991
C	-0.7804597653	 3.1995143998	 2.2369757068	-0.189045
C	 0.6268123677	 2.6228855457	 2.4941858286	-0.216484
C	 1.5402280241	 2.7344941005	 1.2881541601	-0.00944
N	 2.3371294123	 1.5455627421	 0.9262949131	-0.324117
C	 1.2475124461	 1.964691196	 0.0487904928	-0.130616
H	-1.1587660268	 2.8421761458	-0.5791390801	 0.098173
H	-2.0740577347	 1.31838051	-0.4711283374	 0.118527
H	-2.709702782	 2.7490567787	 1.3895035248	 0.102357
H	-1.8587799359	 1.3394725873	 2.0006277939	 0.117952
H	-0.6930988509	 4.1670417349	 1.7232738034	 0.092104
H	-1.2569982976	 3.4116308557	 3.2009021822	 0.100481
H	 1.090157541	 3.1379518366	 3.3434206214	 0.097278
H	 0.5526411751	 1.5660012966	 2.7746636054	 0.125656
H	 2.0006770073	 3.711306888	 1.1458325539	 0.084826
H	 3.234816964	 1.8151559593	 0.5328720271	 0.234446
H	 1.478801619	 2.4499910505	-0.9000024601	 0.102402
