20
0 0
C	 0.219037948	 1.4978134795	 0.0215381287	-0.343102
N	 0.0269258765	 0.0749103372	-0.06189064	-0.069944
C	-1.1734572585	-0.7544482649	-0.1707184691	-0.199486
C	-0.2333761656	-2.0034957965	-0.1655545211	-0.160892
C	-0.2380356934	-2.8951650299	-1.375896464	 0.033738
C	 0.4288556033	-4.2456375132	-1.3194960342	-0.259582
C	-1.0737896745	-4.1540003852	-1.4003077296	-0.28138
C	 0.9216224828	-0.9669778862	-0.0638072546	 0.394367
O	 2.1242812125	-0.9971357758	-0.0118515417	-0.378699
H	 1.2938757597	 1.6820300323	 0.0926686938	 0.161286
H	-0.1692994818	 2.0115713287	-0.866851871	 0.126325
H	-0.2715940793	 1.9209868447	 0.9071066729	 0.126288
H	-1.8568597649	-0.6683314892	 0.682076199	 0.105476
H	-1.734358136	-0.6076103802	-1.1014399969	 0.107271
H	-0.3230626688	-2.5960091079	 0.7504291491	 0.093422
H	-0.1506711458	-2.3624683942	-2.3198108225	 0.085117
H	 0.9748542876	-4.5821188048	-2.1932377246	 0.116839
H	 0.8721104456	-4.5496412235	-0.3774449453	 0.120154
H	-1.6470571311	-4.3991756801	-0.5120302601	 0.109949
H	-1.5591733762	-4.4291235308	-2.3300770087	 0.112854
