19
0 0
C	-0.0859764819	 1.5119246499	-0.0105154598	-0.493
C	 0.1175281612	 0.0191410572	 0.0012845561	 0.27982
C	 0.4458141105	-0.6879355629	-1.318258824	-0.303513
C	 1.2637153209	-1.885591432	-0.8857022877	-0.080187
C	 1.4567255526	-1.9101712075	 0.4329787554	-0.095088
C	 0.771902897	-0.7565726457	 1.1022448315	 0.26162
C	 1.3284803655	-0.1906155949	 2.3823898265	-0.499921
N	-0.7106671731	-0.8307823276	 0.8942867992	-0.406263
H	 0.760275447	 2.0234656972	-0.4824586249	 0.121686
H	-0.9877037359	 1.7762539629	-0.5758620497	 0.125223
H	-0.2010323387	 1.9158079617	 1.0001423007	 0.112608
H	-0.4670254006	-0.9841398581	-1.849408375	 0.11656
H	 1.0108145624	-0.0322241988	-1.9953760013	 0.098932
H	 1.6129634993	-2.635122499	-1.5869813125	 0.093185
H	 2.002786849	-2.6677629286	 0.983820707	 0.091143
H	 2.3914109058	 0.0525789576	 2.2762833141	 0.12512
H	 0.8041399731	 0.7200176353	 2.687602226	 0.114215
H	 1.2350139093	-0.9149951488	 3.2000987013	 0.125835
H	-1.1542056336	-0.2159003078	 1.5784123671	 0.212026
