19
0 0
C	 0.6579799859	 0.1707180969	-1.0277073068	-0.340999
N	-0.0869309527	 0.0862397168	 0.2304264234	-0.168866
C	 0.0158378562	 1.3095202884	 1.0178517881	-0.331315
C	-1.3865320036	-0.4135733587	 0.1268702034	 0.36423
C	-2.6392556493	 0.1440806586	 0.2960384225	-0.153115
N	-3.5767666056	-0.8276351893	 0.1365959775	-0.191105
N	-2.9853798663	-1.9548296448	-0.1294194012	-0.160603
N	-1.6489256987	-1.7263290011	-0.1273278538	-0.009948
C	-0.7223603124	-2.8202973465	-0.3145330602	-0.335177
H	 1.7095891984	 0.3766094024	-0.8073459823	 0.127605
H	 0.6039726249	-0.7756217417	-1.5685512137	 0.130113
H	 0.2767014626	 0.9668989817	-1.6878426041	 0.117223
H	-0.4128162127	 2.1880428783	 0.506802381	 0.112557
H	-0.4987709912	 1.1759050938	 1.9716486953	 0.140177
H	 1.0715749295	 1.517026955	 1.2161388724	 0.126499
H	-2.9077445139	 1.1618367439	 0.5257705254	 0.115229
H	-0.4029597151	-2.9069447762	-1.3585027492	 0.141776
H	 0.1543225212	-2.658500629	 0.3169147982	 0.151065
H	-1.2307395973	-3.7396673884	-0.0235535759	 0.164652
