14
0 0
O	 0.1241961235	 0.0350565285	 0.5855952732	-0.318619
C	 0.1021936412	 1.224612276	 0.3534175522	 0.136453
N	 1.1476025941	 1.9134624042	-0.1635395671	-0.042956
C	 2.5162253882	 1.4645214529	-0.401763562	-0.177322
C	 2.8797920121	 2.9464606719	-0.7641482741	-0.168115
C	 1.4179491276	 3.3384596362	-0.3523707481	-0.189619
C	 3.9526351218	 3.5627530583	-0.0058142173	 0.278164
N	 4.8023337588	 4.0543685212	 0.6042354245	-0.311149
H	-0.7803592888	 1.8735887514	 0.5262075436	 0.07863
H	 3.0140655603	 1.0762770531	 0.491526066	 0.149737
H	 2.6237091282	 0.745979563	-1.2181322277	 0.142073
H	 3.0626782662	 3.0837168082	-1.8310195289	 0.143345
H	 0.8339301639	 3.8196661346	-1.1423384123	 0.135556
H	 1.3589273629	 3.9361191203	 0.562828718	 0.143824
