21
0 0
C	 0.0332106336	 1.4779212172	 0.045678686	-0.516972
C	 0.0368235159	-0.0086133843	-0.0161780345	 0.337772
C	 0.0330211816	-0.8729981437	-1.033062506	-0.269683
C	 0.0451645126	-2.2348589372	-0.3053190571	 0.382739
C	-0.1473242418	-3.5173104298	-1.0640531036	-0.509298
C	 1.1597863307	-1.9871728819	 0.7588689528	-0.294199
C	 0.0507848463	-0.982764443	 1.2003637925	 0.308952
C	-0.1297707621	-0.4687830021	 2.6012677282	-0.51342
O	-0.9335054681	-1.9853211825	 0.7695336201	-0.348411
H	 0.9181987563	 1.8620738956	 0.5697928449	 0.126608
H	 0.0179154552	 1.91857355	-0.9550649798	 0.127707
H	-0.8391381832	 1.854311224	 0.5951667712	 0.131781
H	 0.0269702057	-0.7047672082	-2.1012228672	 0.09905
H	 0.6485703868	-3.6455055724	-1.8049677021	 0.12051
H	-0.133052105	-4.3757040113	-0.3870811556	 0.12582
H	-1.1069056041	-3.5105576048	-1.5909578401	 0.130729
H	 1.269095206	-2.8217925504	 1.4582222347	 0.093605
H	 2.1260148425	-1.5985180823	 0.4285633277	 0.088334
H	 0.6682670083	 0.234793712	 2.8601214436	 0.120059
H	-1.0885849593	 0.0503376717	 2.7020473703	 0.129778
H	-0.1106265679	-1.2926022065	 3.3195729039	 0.12854
