20
0 0
C	 0.4026915327	 0.8688571856	-0.7658864587	-0.406056
C	-0.0848026145	 0.106002352	 0.4654614954	 0.027812
O	 0.0612767032	 0.8916578996	 1.6554801941	-0.425841
C	-1.4903363062	-0.4170304935	 0.3584969489	 0.277484
C	-2.3294689851	-0.3890550046	-0.6818954929	-0.204325
C	-3.599192994	-1.0905618904	-0.3502794606	-0.061144
C	-3.4604801464	-2.5366212031	-0.010911761	-0.233407
N	-3.4979199074	-1.5394340616	 1.0615543438	-0.103289
C	-2.1670539591	-1.1018173086	 1.5375603705	-0.24681
H	 1.4134178708	 1.24371483	-0.5872908915	 0.125376
H	 0.4200407963	 0.2260157408	-1.6512135068	 0.12056
H	-0.2492875425	 1.723526682	-0.979497867	 0.111543
H	 0.5890052573	-0.744702771	 0.6389336069	 0.095727
H	-0.5385614647	 1.642323686	 1.5758239193	 0.279096
H	-2.1350317983	 0.0501008997	-1.652331876	 0.099009
H	-4.5522653213	-0.6907773491	-0.6871938763	 0.094194
H	-4.3266235775	-3.192667622	-0.0417550127	 0.114497
H	-2.5113269957	-3.0114762351	-0.2530076761	 0.106982
H	-1.5917178151	-1.9581760708	 1.9130408798	 0.112174
H	-2.2891994025	-0.4146700059	 2.3827060811	 0.116419
