15
0 0
O	-0.2189851303	 1.3758228046	-0.5782258153	-0.40407
C	-0.0240607386	 0.0607922896	-0.0962040433	-0.097305
C	-1.3518830661	-0.6390149769	 0.0770849593	 0.008134
O	-1.9252921039	-1.2484151129	-1.0635676499	-0.270402
C	-1.5400691091	-2.1238015593	 0.0032754617	 0.162494
C	-0.3827893188	-3.0302699674	-0.2825652294	 0.09013
O	-0.0868329717	-3.9536883432	 0.433220123	-0.245168
C	-2.6725995388	-2.7032524484	 0.8247443786	 0.095261
O	-3.7234556241	-2.1373288301	 0.9674481831	-0.241698
H	-0.6114532073	 1.3128311617	-1.4561471986	 0.298196
H	 0.6365046103	-0.5236275133	-0.7513815467	 0.101685
H	 0.4659345292	 0.1597708058	 0.8778865313	 0.133906
H	-2.0775491178	-0.11845739	 0.7040769727	 0.13871
H	 0.163535104	-2.7983083756	-1.2204932208	 0.107056
H	-2.4454720771	-3.6824825944	 1.2864942644	 0.123069
