18
0 0
C	-0.3114685979	 1.4925290168	-0.059852304	-0.411199
C	 0.1104961424	 0.0406877168	-0.0316029732	 0.124092
O	 1.3685936449	-0.1756380445	-0.7697102893	-0.267713
C	 1.9809420888	-0.7227035639	 0.3259970512	 0.451066
O	 3.0946101101	-1.1344908899	 0.4087211731	-0.339977
C	 0.7561188471	-0.5873363017	 1.2421421965	 0.070158
C	 0.9810991628	 0.3148037113	 2.4551207014	-0.446724
C	 0.1698370706	-1.9411503005	 1.6506510765	-0.444374
H	 0.4776630077	 2.150053252	 0.3124783008	 0.131817
H	-0.5488472019	 1.7935697594	-1.0843567897	 0.137139
H	-1.2070083004	 1.6394874605	 0.5527878005	 0.126123
H	-0.6639465173	-0.5975056819	-0.4687397742	 0.092964
H	 1.4363121496	 1.2713379063	 2.1872493031	 0.128399
H	 0.0350307007	 0.5163791387	 2.9686646332	 0.120957
H	 1.650873245	-0.1818788082	 3.1632303062	 0.139367
H	 0.8507871584	-2.459989064	 2.3317133778	 0.138799
H	-0.7880668977	-1.8060881482	 2.1645728351	 0.120784
H	 0.004217107	-2.5877127691	 0.7834640949	 0.128323
