18
0 0
C	-0.0529482374	 1.5461021988	 0.0964367455	-0.397392
C	-0.0318744688	 0.0248086463	-0.0526109052	 0.142374
O	 0.8475234119	-0.5843666225	 0.8808933428	-0.424724
C	-1.454036683	-0.5707639493	 0.0393703205	-0.346341
C	-1.4661698128	-2.0573246684	-0.0113771066	 0.414942
N	-1.7672223287	-2.8916312447	 0.933942299	-0.31112
C	-1.5873688132	-4.1468308261	 0.3633885612	-0.113439
C	-1.1805650451	-3.996617543	-0.9164655021	-0.041115
O	-1.0993935604	-2.655795113	-1.1750433398	-0.176945
H	 0.9640137199	 1.9417227715	 0.0358433908	 0.128289
H	-0.6575929565	 2.0158908098	-0.6865020349	 0.115505
H	-0.4752819156	 1.8351963973	 1.0666293508	 0.109916
H	 0.386890152	-0.2373475011	-1.0310045528	 0.103711
H	 0.4559778401	-0.5088789112	 1.7586221399	 0.282368
H	-1.9200759424	-0.2762502639	 0.985680213	 0.125039
H	-2.0673882253	-0.1593581024	-0.7710003271	 0.123687
H	-1.7649938671	-5.0548690188	 0.9170380776	 0.122268
H	-0.9262166574	-4.6599762494	-1.7246682625	 0.142975
