23
0 0
C	 0.0693560443	 1.5536138299	-0.016649644	-0.476929
C	 0.0612420555	 0.0482482479	 0.0203165232	 0.360829
C	 0.0007974846	-0.6879116341	-1.0931116834	-0.140426
C	-0.031765592	-2.196986487	-1.1637106191	-0.259883
C	-1.4081631194	-2.8408279359	-0.8852666464	-0.177275
C	-1.8909847372	-2.7848509586	 0.5683144344	-0.06712
O	-2.2462533269	-1.4750721731	 0.9825925429	-0.235563
C	-1.3860758993	-0.8472259375	 1.9071306168	-0.061861
C	 0.0472481077	-0.5924031794	 1.3866298632	-0.332932
H	 0.9737943402	 1.9574957247	 0.4573760553	 0.118058
H	 0.0235733177	 1.9338138199	-1.0406860257	 0.118446
H	-0.7824027339	 1.97211888	 0.5357258949	 0.122549
H	-0.0441223826	-0.1685129844	-2.0489911953	 0.07277
H	 0.2898948203	-2.505719741	-2.1645441235	 0.095037
H	 0.7010664743	-2.6306617307	-0.4692573163	 0.09873
H	-2.1709154104	-2.370478365	-1.5167705738	 0.106818
H	-1.3669463735	-3.8999905947	-1.1740566339	 0.087101
H	-2.7926267479	-3.4050550919	 0.6610899578	 0.098412
H	-1.1351451714	-3.2176965708	 1.2411548387	 0.085209
H	-1.8724798782	 0.105774637	 2.1415080361	 0.106781
H	-1.3259643073	-1.4268838795	 2.8431888365	 0.085083
H	 0.5913282327	-1.5426465003	 1.3682992388	 0.103243
H	 0.5559274527	 0.0414945545	 2.1238257727	 0.092923
