15
0 0
O	 0.1001456084	 1.361056691	 0.1143403413	-0.442641
C	 0.0681871625	 0.0013714583	 0.0406303021	 0.422936
C	 0.06984017	-0.6815197612	-1.1728159105	-0.376234
C	 0.0360533602	-2.0842796164	-1.1952882721	 0.193575
C	 0.0006030324	-2.7926761326	 0.0145794223	-0.229981
C	-0.0005990597	-2.0967280005	 1.2189371922	-0.078245
C	 0.0328251702	-0.7076129891	 1.243821936	-0.199086
C	 0.0379607676	-2.776867349	-2.4410147301	 0.222233
C	 0.0395825	-3.3620107524	-3.4936586912	-0.415058
H	 0.1225562545	 1.7257630459	-0.7765840821	 0.298789
H	 0.0972555857	-0.1347108449	-2.1105594859	 0.094263
H	-0.0254759863	-3.8751274533	-0.0023861431	 0.104563
H	-0.0280257548	-2.6450165683	 2.154698567	 0.102568
H	 0.0322015632	-0.1561533796	 2.1767556699	 0.109112
H	 0.0409477361	-3.8801655378	-4.4203203058	 0.193205
