14
0 0
N	-0.0590033627	-1.2027349463	-0.1260223254	-0.316081
C	-0.032841512	-0.0499626221	-0.0504272375	 0.285875
C	-0.005409809	 1.4118857867	 0.0327209748	-0.209524
C	-0.7026104372	 1.9097442103	 1.3099387516	-0.076927
O	 0.0385663446	 1.5581885722	 2.4762915303	-0.215353
C	 1.3892205524	 1.649383604	 2.3684964124	 0.141606
N	 2.0962965067	 1.8519255036	 1.3417276578	-0.255151
C	 1.4434471896	 1.9626486036	 0.0479519106	-0.162158
H	-0.5445618643	 1.8036125603	-0.8372089239	 0.136182
H	-0.7961747756	 3.0014977917	 1.2573416844	 0.124931
H	-1.6949409456	 1.4740650847	 1.4351627956	 0.143747
H	 1.8465950149	 1.5056498817	 3.3446442661	 0.138199
H	 2.0540095638	 1.4365119944	-0.691791213	 0.139647
H	 1.4219849644	 3.0167048752	-0.255097084	 0.125008
