18
0 0
O	 0.032378457	-0.1007305112	-0.063330064	-0.387749
C	-0.0178269016	 1.1165109373	-0.0499867516	 0.391182
N	-1.1981022513	 1.8000043934	-0.1458427248	-0.306736
C	-1.376262798	 3.2433169405	-0.0540160686	-0.193542
C	-0.1079127707	 4.0118708643	-0.4103743994	-0.028667
C	 1.0944438835	 4.1429905481	 0.4953546672	-0.067164
C	 1.2609243265	 2.8994355196	 1.3689333821	-0.253898
C	 1.2029584124	 2.0057375379	 0.0747129938	-0.128809
C	 1.1569036176	 3.2940886172	-0.7727815373	-0.087121
H	-2.0207363595	 1.2165228441	-0.1814251804	 0.244356
H	-2.1708986081	 3.5278042037	-0.7533515515	 0.113787
H	-1.7242985713	 3.5328287074	 0.9492800319	 0.111048
H	-0.2929429627	 4.908915103	-0.9930571554	 0.095562
H	 1.5376460816	 5.1124884882	 0.689119563	 0.087643
H	 2.2463784783	 2.8422561435	 1.8348199126	 0.11462
H	 0.501473459	 2.718097749	 2.1367918719	 0.103861
H	 2.0892956027	 1.38987883	-0.0622456128	 0.09905
H	 1.6883347246	 3.453530014	-1.7023326266	 0.092577
