17
0 0
C	-0.1282168962	-1.2510762878	-0.1835916246	-0.49422
C	-0.0636394658	-0.0548429325	-0.0802036025	 0.339727
C	 0.0121065428	 1.3984510974	 0.0519247253	-0.284402
C	-0.5509774689	 1.8981807099	 1.3724505731	-0.069376
C	 0.3703566509	 2.492059654	 2.1267085967	-0.07286
C	 1.7308684896	 2.5141450643	 1.4794434844	-0.337038
C	 1.4584525167	 1.9590194301	 0.0789858677	 0.407426
C	 2.4964418302	 1.5321265267	-0.8577332389	-0.236742
O	 1.8210667462	 2.7850758132	-1.0284132296	-0.270483
H	-0.1875633554	-2.3073846046	-0.2742977707	 0.19747
H	-0.5049983614	 1.8554795943	-0.8025775923	 0.127157
H	-1.5903758346	 1.745664474	 1.6355126811	 0.108766
H	 0.1885445572	 2.9132181891	 3.1089926462	 0.102573
H	 2.160131063	 3.5195596443	 1.4033763192	 0.127534
H	 2.4518038068	 1.8989276337	 2.0339313768	 0.119495
H	 3.5446809789	 1.6023097328	-0.5686510416	 0.111395
H	 2.26811131	 0.7692964309	-1.6000909004	 0.123577
