24
0 0
C	-0.1099135496	 1.5488584375	-0.1299096462	-0.385278
C	 0.0031722956	 0.0294311109	 0.0633416662	 0.013294
C	 0.7322531428	-0.2864668391	 1.3785040394	-0.397711
C	-1.391667033	-0.6287324195	-0.0225630926	 0.134328
O	-2.0674344217	-0.2484417056	-1.2221129838	-0.429731
C	-1.366038492	-2.1559317287	 0.1137661429	-0.171301
N	-2.7120800213	-2.6960342366	 0.229404054	-0.051771
C	-3.3954240518	-3.0601021345	-1.0024208388	-0.197719
C	-2.8811399764	-4.1115301576	-0.0823524372	-0.228787
H	 0.8817978062	 2.0089282216	-0.1852802161	 0.104646
H	-0.6616074439	 1.7920144641	-1.0397633737	 0.123079
H	-0.6422027411	 2.0053162389	 0.7132991369	 0.112425
H	 0.6051887801	-0.3769600643	-0.766075194	 0.05801
H	 0.9911046658	-1.3439227132	 1.4766296173	 0.116184
H	 1.6638318726	 0.2847558383	 1.4428754325	 0.112961
H	 0.1164309935	-0.0086448527	 2.2422006823	 0.118604
H	-2.0227251888	-0.2318272903	 0.7823440901	 0.096675
H	-1.5262770913	-0.5424487414	-1.9640584053	 0.272529
H	-0.8117627609	-2.5846153382	-0.7469173693	 0.061333
H	-0.8213228504	-2.4413258639	 1.019120069	 0.106516
H	-4.4545138277	-2.8240537717	-1.0446066058	 0.117444
H	-2.8647455764	-2.9202909521	-1.942052005	 0.096494
H	-2.0051689969	-4.6713280314	-0.4088014583	 0.103281
H	-3.5541173634	-4.6624242604	 0.5687061055	 0.114496
