18
0 0
C	 0.4992057462	 1.5017391627	-0.4788469233	-0.4242
C	-0.0231644697	 0.1233279387	-0.144257203	 0.03287
C	 0.8969448809	-1.0311994371	 0.0582716134	-0.25807
N	 0.1414276935	-0.4824181889	 1.1829312188	-0.113107
C	 0.8064547021	 0.2476341443	 2.2736436959	-0.194422
C	 0.5226555089	-0.5886180007	 3.5387890519	 0.182373
O	 0.0595321409	-0.1424826168	 4.5503760656	-0.241348
C	 2.250915288	 0.4552103191	 2.1727902766	 0.314386
C	 3.4485481856	 0.5659388819	 2.1292562252	-0.463249
H	 1.5086463234	 1.6638020754	-0.0943869903	 0.138208
H	 0.5238060258	 1.6346718246	-1.5655065502	 0.125922
H	-0.1544539139	 2.2802326291	-0.0694175589	 0.126465
H	-1.00554015	-0.0887638744	-0.5648285428	 0.097153
H	 0.611975363	-2.0345855178	-0.2467200197	 0.118218
H	 1.9637713186	-0.8237393566	 0.0168921518	 0.126984
H	 0.3000855079	 1.2082009831	 2.4166896574	 0.129875
H	 0.7720209731	-1.6631236115	 3.4120915259	 0.092856
H	 4.5033674059	 0.6877043148	 2.0903706256	 0.209084
