19
0 0
O	-0.0846032379	 1.436305709	-0.0934741247	-0.45126
C	 0.0040799669	 0.0233369459	 0.0259140734	 0.07315
C	 0.6336392721	-0.5195240337	 1.3338121841	-0.289614
C	-0.2454171601	-1.7255200062	 1.670829268	-0.039065
C	-1.7211102387	-1.4914706325	 1.9498791002	-0.065718
C	-2.1681631312	-0.1515151851	 1.3601226924	-0.298642
C	-1.4178153245	-0.5451582116	 0.039031392	 0.426193
O	-2.1021809231	-0.3869134163	-1.1682840854	-0.513039
C	-1.2646317741	-1.9848545007	 0.588120011	-0.137594
H	 0.7957052148	 1.7895095867	-0.2505899443	 0.288436
H	 0.5233500154	-0.400690339	-0.8477029399	 0.068503
H	 1.6780343099	-0.8133969754	 1.1911934775	 0.094255
H	 0.6094520753	 0.2509124866	 2.1121144969	 0.105286
H	 0.1948282655	-2.5781933617	 2.1754530409	 0.083384
H	-2.232941987	-2.0470374493	 2.7269799375	 0.081688
H	-3.2430815346	-0.1421860057	 1.1664572639	 0.105711
H	-1.8733794882	 0.7750326144	 1.8624030902	 0.096387
H	-1.9897018916	 0.5374378698	-1.4236370064	 0.282874
H	-1.4398596989	-2.9127123451	 0.0614653727	 0.089065
