15
0 0
O	 0.0050456158	 1.4305791725	 0.0916206896	-0.420866
C	 0.0229944932	 0.0347691143	 0.0353937163	 0.016962
C	-0.51172193	-0.7864653284	 1.2047204795	-0.400607
C	-1.299687013	-0.6398865656	-0.0621741741	 0.452725
C	-2.6581430854	-0.0000815774	-0.3074058704	-0.345239
C	-2.8430514728	-1.1723998482	-1.2971077185	-0.073867
O	-1.5474300234	-1.7245731888	-0.9529490615	-0.307742
H	 0.6773733446	 1.7134443647	 0.7207192174	 0.288975
H	 0.8394668822	-0.4091646859	-0.5352471217	 0.095587
H	-0.0369168176	-1.7419694367	 1.4024722196	 0.123027
H	-0.8707531099	-0.2507863032	 2.0784808569	 0.115313
H	-3.3372389118	-0.0030785827	 0.5471082442	 0.112047
H	-2.6227373806	 0.9986769055	-0.7437873741	 0.129361
H	-3.6523519359	-1.8738758153	-1.067721316	 0.10633
H	-2.8938176856	-0.8934597148	-2.3555996771	 0.107993
