22
0 0
C	-0.6450518746	 1.1346670806	 0.8787604999	-0.399247
C	-0.2073318201	-0.16507029	 0.2120994763	-0.117016
N	-1.3665865335	-0.94616449	-0.2384608516	-0.291171
H	-2.6432710373	-1.4397437511	 0.8281251008	 0.309394
H	-1.9395319635	-0.3588679802	-0.8415643076	 0.232935
C	-1.0203041783	-2.1722566239	-0.9693148186	-0.137464
C	-2.2374823147	-3.074756253	-1.1981592637	-0.234665
C	-2.8102493502	-3.7578355646	 0.0641149945	-0.312788
C	-3.8250530559	-2.9784019512	 0.9107378268	 0.380458
O	-3.5036902717	-1.7247752245	 1.2449148912	-0.385579
O	-4.8536718912	-3.4836613764	 1.2846191426	-0.332135
H	 0.2248457996	 1.694258274	 1.233469967	 0.126753
H	-1.1883308585	 1.7768921648	 0.1763392669	 0.120124
H	-1.3002305035	 0.9354763375	 1.7315963849	 0.143595
H	 0.4791688117	 0.0499165292	-0.6240337088	 0.094408
H	 0.3501388143	-0.7846166965	 0.9242624914	 0.118079
H	-0.5374555026	-1.9433096585	-1.9332459149	 0.096059
H	-0.2776877742	-2.7125856137	-0.3690986326	 0.114621
H	-3.0248163314	-2.5126647183	-1.7174365987	 0.111376
H	-1.9267490264	-3.8623538836	-1.8933605352	 0.113991
H	-3.3225710233	-4.6797310063	-0.2161759725	 0.130813
H	-1.9808501146	-4.0476078645	 0.724366182	 0.11746
