23
0 0
C	 0.0828292451	 1.5958324264	-0.071941045	-0.458259
C	 0.0441346714	 0.0773128185	-0.0029450663	 0.416574
O	-1.3021632057	-0.3918588499	-0.096696851	-0.482501
C	 0.9780595121	-0.744045341	-0.948885561	-0.344801
C	 1.3318525238	-1.7045935062	 0.2327855563	 0.396289
C	 0.8900008516	-3.1432228677	 0.0886324404	-0.497274
C	 2.7067240894	-1.3915382928	 0.8757264239	-0.281587
C	 2.0555171011	-0.2375208889	 1.6954056455	-0.25042
C	 0.6436835943	-0.6731210411	 1.2081358819	-0.076461
H	 1.0986663027	 1.9872736645	 0.0332057027	 0.115066
H	-0.3007970708	 1.9436278387	-1.0398181045	 0.102852
H	-0.5427421101	 2.0291724949	 0.7148257175	 0.122987
H	-1.6405132863	-0.1341441146	-0.9618172459	 0.27069
H	 0.453193529	-1.207798139	-1.7891281339	 0.089142
H	 1.835885858	-0.1858138857	-1.3365416195	 0.0885
H	 1.4724115745	-3.661548393	-0.6840454168	 0.108499
H	 1.0179132095	-3.6953662274	 1.026756002	 0.107914
H	-0.1667953099	-3.1961905834	-0.193053045	 0.124566
H	 3.0547414683	-2.2066231716	 1.5177414075	 0.094896
H	 3.5197376779	-1.1254716399	 0.1926060413	 0.088542
H	 2.1957731629	-0.3143620159	 2.7755883912	 0.102292
H	 2.3568556187	 0.7693249201	 1.3948663676	 0.096546
H	-0.0778613874	-0.9588857348	 1.9749644309	 0.065947
