17
0 0
O	-0.0336172125	 1.4854013542	-0.033467113	-0.423448
C	-0.0003768668	 0.0820332381	 0.0417800467	 0.133483
C	 0.1392163583	-0.6492100927	 1.405100155	-0.10145
C	-0.5976641969	 0.1318355276	 2.4879732188	-0.023549
O	-1.9774822465	 0.2878432093	 2.1963705547	-0.267886
C	-2.382035543	 0.1443748714	 0.8419069427	-0.032829
C	-1.3641868874	-0.632814836	 0.0124220112	-0.073879
N	-0.8018783582	-1.713404155	 0.9027336712	-0.315595
H	 0.8683355226	 1.8205370478	-0.0340958378	 0.287732
H	 0.6820223586	-0.3514991286	-0.703116874	 0.065153
H	 1.122048242	-0.9851712201	 1.7470043351	 0.065762
H	-0.5393018854	-0.4036410189	 3.442532154	 0.10314
H	-0.1149897206	 1.1138857427	 2.6100760505	 0.08519
H	-3.3349368595	-0.3969371162	 0.8585477435	 0.10294
H	-2.5455140714	 1.1286934229	 0.3803945894	 0.104748
H	-1.7856798776	-0.9506562623	-0.9442508229	 0.072277
H	-0.2649364457	-2.3503651843	 0.315579915	 0.218211
