15
0 0
C	-0.0529303386	 1.3923212131	 0.0650001843	-0.327973
N	 0.3331823293	 0.0038566928	-0.0699593425	-0.319699
C	 0.6982734554	-0.7608668636	 0.9958636708	 0.438317
O	 0.6940302416	-0.3847801685	 2.1519575384	-0.380543
N	 1.1179568713	-2.0589504679	 0.575336875	-0.154224
C	 0.0922393593	-3.1148602332	 0.5284189327	-0.234548
C	 1.1285451274	-3.0960231102	 1.5948893306	-0.205793
H	 0.7102275748	 2.0701365844	-0.3367074099	 0.125264
H	-0.9997869349	 1.5893688316	-0.4492129083	 0.122626
H	-0.1737387584	 1.5965657528	 1.1294062189	 0.168977
H	 0.5109968687	-0.3776806282	-0.9841574279	 0.250541
H	-0.920634945	-2.8399491651	 0.8120540914	 0.130512
H	 0.1663006657	-3.8005568618	-0.3108138663	 0.120808
H	 1.9713496124	-3.7785062647	 1.5446188865	 0.119785
H	 0.8231693009	-2.7908064414	 2.5907793661	 0.14595
