25
0 0
C	-0.1048192017	 1.4269937106	-0.1040818211	-0.226513
O	-0.1900015138	 0.0252013018	-0.1637597751	-0.230834
C	 0.7105175883	-0.5412752781	-1.0913950307	-0.0486
C	 0.5484882227	-2.054973246	-1.0709744257	-0.197773
C	 1.5055151858	-2.7600216219	-2.0415843234	-0.268628
C	 1.332722755	-4.2716173726	-2.1033386963	 0.39454
C	 1.6457356441	-5.0223782351	-0.8218007603	-0.462114
C	 0.230439818	-4.8136835589	-2.983402163	-0.29295
C	 1.6750354842	-4.954888414	-3.4059237505	-0.316519
H	 0.8982452665	 1.7647006954	 0.2036536463	 0.100505
H	-0.3373246317	 1.8947897715	-1.0746499124	 0.100448
H	-0.833361063	 1.7701001046	 0.6349063779	 0.124592
H	 0.5156616261	-0.1458807122	-2.1045315339	 0.079977
H	 1.7484872577	-0.2617242816	-0.8359891825	 0.080517
H	 0.7129001995	-2.4018743971	-0.0448815153	 0.107836
H	-0.4892736661	-2.3020899225	-1.3238467874	 0.107052
H	 1.361051172	-2.3468564957	-3.0485656989	 0.089231
H	 2.5440070775	-2.5279218129	-1.7641341862	 0.092114
H	 0.9761237277	-4.7320717547	-0.0050855292	 0.119974
H	 1.539432541	-6.1023846955	-0.9640990037	 0.110861
H	 2.6744396236	-4.8306672363	-0.4929408714	 0.111556
H	-0.2968356649	-5.7045488117	-2.6584469956	 0.106895
H	-0.3910509055	-4.1071855717	-3.5243853525	 0.10636
H	 2.0267025952	-4.3447969034	-4.2317613522	 0.105398
H	 2.1251484618	-5.941414672	-3.363623527	 0.106076
