17
0 0
O	 0.3310839332	 1.3748939178	-0.3125020739	-0.416419
C	 0.1105294096	 0.0364462618	-0.0359270042	 0.118215
C	-1.3236814446	-0.6620359071	-0.1921572273	-0.090524
C	-2.0709373138	-0.7540340165	-1.5632134592	-0.111854
C	-1.0772585901	-1.155180005	-2.7345849434	-0.07458
C	 0.2748240385	-0.7039695122	-2.356172729	-0.143142
C	 0.4804630904	-1.0565743669	-1.0627087124	-0.03601
C	-0.6423301665	-1.9999242506	-0.5860897736	-0.066465
C	-1.6019646979	-2.1804751103	-1.7735766627	-0.087146
H	 0.0719804548	 1.5308013663	-1.2290610334	 0.281943
H	 0.4512499034	-0.1253617836	 0.9922778568	 0.098202
H	-1.9970386947	-0.6055227556	 0.6658426008	 0.084619
H	-3.0222968603	-0.2994701142	-1.8046403735	 0.096066
H	-1.4900882152	-1.0969897748	-3.7359143198	 0.089973
H	 0.7083862223	 0.1851273817	-2.8078922682	 0.089446
H	-0.4204755334	-2.7836811522	 0.1334480745	 0.074533
H	-2.1522887256	-3.0654890182	-2.0609449115	 0.093144
