18
0 0
C	 0.0504757581	 1.4102659922	-0.0134958332	-0.359119
C	 1.3752013271	 0.7020095943	-0.0287990567	 0.228815
C	 1.7425424335	 0.1359862859	 1.3569563953	-0.283409
C	 0.402694286	-0.6728953211	 1.3654224954	-0.283403
C	 0.0600712088	-0.0919376618	-0.0204720275	 0.228819
C	 0.0004791457	-0.7890528838	-1.3578217462	-0.154138
O	 0.9380696556	-0.0827572485	-2.1868566961	-0.260989
C	 2.0074125824	 0.4225291384	-1.370523174	-0.154138
H	-0.2623383445	 1.9378424339	 0.8830169807	 0.107974
H	-0.2404528398	 1.8823476425	-0.9457476997	 0.128152
H	 2.6224777204	-0.5112488305	 1.3283125082	 0.105218
H	 1.8837042225	 0.8747087818	 2.1517461233	 0.100149
H	 0.5653921052	-1.753158143	 1.3412099362	 0.105215
H	-0.3093507499	-0.4493769632	 2.1656485639	 0.100147
H	 0.2851489994	-1.8480404651	-1.2427054733	 0.087227
H	-0.9602440026	-0.7454857345	-1.8812457168	 0.108128
H	 2.4114823781	 1.2899971317	-1.9025836053	 0.108128
H	 2.8129510139	-0.3220149093	-1.2586891042	 0.087225
