16
0 0
N	-0.4160399229	 1.3053975794	 0.1677749146	-0.429442
C	-0.1982333042	 0.0690076967	 0.0641007901	 0.125059
O	-1.2308578472	-0.7853415404	-0.1102601025	-0.191861
C	-0.9402331803	-2.1802232174	-0.0403695978	 0.075066
C	-1.0790315267	-2.7078453118	 1.401474882	-0.091212
O	-2.4470766124	-3.0926764154	 1.5581829687	-0.213573
C	-3.0602444155	-3.2501467598	 0.3484707564	 0.445494
O	-4.1935804604	-3.6084035002	 0.2452720715	-0.325528
C	-2.0600777164	-2.923410897	-0.7577468283	-0.382962
H	 0.4630766571	 1.810458796	 0.2571569941	 0.234856
H	 0.7825448957	-0.4280684564	 0.0791098314	 0.086941
H	 0.0555210781	-2.3762834372	-0.4517262743	 0.097139
H	-0.4368045384	-3.5811323569	 1.56815781	 0.119686
H	-0.8479603957	-1.9426166182	 2.1454581897	 0.139717
H	-2.5248449771	-2.3336898304	-1.5472651873	 0.164475
H	-1.7051394336	-3.864671721	-1.1892275783	 0.146145
