16
0 0
N	-0.2859207463	 1.2017103263	 0.623604991	-0.541189
C	-0.1185666113	 0.060142449	 0.1402763654	 0.427778
O	 1.036523516	-0.5678833211	-0.3122185808	-0.300173
C	 0.2991943801	-1.7668766394	-0.6975939976	 0.343767
C	 0.2334559661	-2.8367820309	 0.4086918979	-0.288866
C	-1.0601221521	-2.1788130685	 0.9776183461	-0.23069
C	-1.0248173521	-1.1093595892	-0.1574387007	-0.21641
C	 0.5179126536	-2.1410450531	-2.1309924198	 0.085041
O	 0.3353713357	-3.2519966821	-2.5605275569	-0.248864
H	 0.591172831	 1.7213419764	 0.6845645424	 0.234355
H	 0.0705587643	-3.8290884384	-0.0154729574	 0.141099
H	 1.1088815512	-2.8543363419	 1.0593609548	 0.124162
H	-1.936294596	-2.8254144641	 0.9151258477	 0.124756
H	-0.9984615884	-1.7673000144	 1.9860635489	 0.129865
H	-1.9205462964	-0.9271820928	-0.7470440676	 0.117575
H	 0.8393636648	-1.296828856	-2.7783392634	 0.097794
