15
0 0
C	 0.7245306547	 1.3899578953	 0.2322082198	-0.170543
O	 1.0977441499	 0.1692121292	-0.4106999287	-0.226005
C	-0.2331955951	 0.2829465454	 0.0866641916	-0.088338
C	-0.5863485022	-0.5885365946	 1.2319160931	 0.425812
O	 0.2662985196	-0.6559458846	 2.3687894763	-0.254977
C	-0.0580095038	-1.8736350348	 1.6962028508	-0.100096
C	-1.5075825201	-2.3132838369	 2.1531832327	-0.012914
O	-1.9933004521	-1.3446684508	 3.0805294271	-0.207316
C	-2.0451853967	-1.0344110864	 1.6930284254	-0.08271
H	 1.1799234679	 1.5559575535	 1.2054691064	 0.138043
H	 0.6470933788	 2.2585966758	-0.4196876856	 0.11856
H	-1.0039938512	 0.354761846	-0.6819542345	 0.097543
H	 0.7476788945	-2.4883793524	 1.3162597673	 0.128477
H	-1.9293742179	-3.3099299077	 2.1705256018	 0.118551
H	-2.9963219364	-0.7643122471	 1.2507819165	 0.115912
