13
0 0
N	 0.2093436671	 1.4325301497	 0.003581614	-0.622083
C	-0.042562402	 0.0487883426	 0.0105219014	 0.120251
C	-1.129768482	-0.7985825233	-0.0168528348	 0.259558
O	-2.4932992671	-0.8601331212	-0.0623129529	-0.236081
C	-2.7188762745	-2.2271501593	-0.0547731385	 0.048998
N	-1.6910827424	-3.0040134116	-0.0113070227	-0.324103
C	-0.6289648656	-2.1025527162	 0.0146163212	 0.330679
N	 0.7006432861	-2.1503713523	 0.0602394436	-0.332181
N	 1.0139336275	-0.8351542655	 0.0560670565	-0.190117
H	-0.1532064445	 1.8788294615	-0.8324588836	 0.255632
H	-0.2062836339	 1.89676934	 0.8044208545	 0.255632
H	-3.759322123	-2.5131435958	-0.0868199469	 0.153369
H	 1.9808358242	-0.5529903285	 0.0855265582	 0.280447
