20
0 0
C	 0.0410588455	 1.5201822891	 0.000048353	-0.518367
C	 0.0091889958	 0.0125481847	-0.0090667587	 0.285659
C	-0.0544454502	-0.6953305552	-1.2077403603	-0.208572
C	-0.0731808077	-2.0858345392	-1.2283392148	-0.127245
C	-0.0211524254	-2.7802797938	-0.0244696604	-0.208559
C	 0.0430870967	-2.1126072719	 1.1970334154	 0.285638
C	 0.1111739354	-2.87668279	 2.495349661	-0.518373
C	 0.0543821029	-0.7036200758	 1.2035721818	 0.118847
N	 0.175396449	-0.0133184379	 2.4163531243	-0.589699
H	 0.9331664636	 1.9049119919	 0.510113741	 0.132236
H	 0.0408332923	 1.9170587659	-1.0179003317	 0.124513
H	-0.8307793542	 1.9504018236	 0.51393516	 0.117687
H	-0.0895363055	-0.139228126	-2.1402726628	 0.081382
H	-0.1218903048	-2.6210631343	-2.1700489187	 0.083496
H	-0.0300486428	-3.8665661699	-0.0248989662	 0.081382
H	 1.0057322236	-2.61529516	 3.0745710834	 0.132229
H	-0.7565168087	-2.6763715434	 3.1405231496	 0.117685
H	 0.133489167	-3.9538655564	 2.3139391036	 0.12452
H	-0.1596448353	-0.5167174442	 3.2242905487	 0.242763
H	-0.1837525473	 0.9296973829	 2.403435822	 0.242778
