14
0 0
C	-0.0882167458	-1.2080232369	 0.0927775335	-0.420479
C	-0.0433027168	-0.007036512	 0.0703021475	 0.342301
C	 0.0092153032	 1.4270034323	 0.0119914165	-0.256779
O	 0.6198170752	 2.1183249786	 1.1317931096	-0.260486
C	 1.2918438222	 2.1398441504	-0.0988217841	 0.371837
C	 2.6990987563	 1.6209954178	-0.3611355349	-0.156947
O	 2.9713151732	 2.7802235703	-1.1842869474	-0.274012
C	 1.6937282826	 3.3840209447	-0.8838486047	-0.154338
H	-0.131402395	-2.269144663	 0.1213197014	 0.208896
H	-0.8850661223	 1.9190582245	-0.3685320576	 0.125069
H	 3.3365877386	 1.579790969	 0.5305840238	 0.119357
H	 2.7786954533	 0.6811494311	-0.9186193239	 0.121947
H	 1.1166337563	 3.6131109158	-1.7872767634	 0.114682
H	 1.789462669	 4.2872451475	-0.2676043963	 0.118954
