20
0 0
C	 0.0059351898	 1.4987384642	-0.082950731	-0.474383
C	-0.0154958819	 0.0001147045	 0.0565999323	 0.321119
C	-1.2898755532	-0.7670160346	-0.2779528831	-0.159306
O	-1.1087454046	-2.0758726071	 0.263585643	-0.300043
C	-0.2849562221	-1.9504089959	 1.4062029746	 0.454524
C	-0.8674772379	-2.227510732	 2.7673421947	-0.334735
C	 0.0804210156	-3.2169414077	 2.10546564	-0.33658
C	 0.6245568141	-0.7876196968	 1.1460384151	-0.173257
N	 1.2370935802	-0.7294959948	-0.1922224741	-0.383389
H	 0.9710956064	 1.8956589221	 0.2397790803	 0.134204
H	-0.1451232629	 1.7977563607	-1.1266642253	 0.121926
H	-0.7836061891	 1.9629101102	 0.5180769733	 0.117123
H	-2.1585293899	-0.2625560829	 0.174434027	 0.096269
H	-1.4746335425	-0.878731793	-1.3521497073	 0.10894
H	-0.5103488184	-1.6548404424	 3.6172863364	 0.112621
H	-1.9169722458	-2.4966175657	 2.8028148413	 0.122469
H	-0.3506308029	-4.1318813907	 1.7147597235	 0.126672
H	 1.0859712446	-3.3181027236	 2.4989765249	 0.120027
H	 1.1880955951	-0.3487733784	 1.9630202245	 0.090799
H	 1.0506552855	-1.6002568463	-0.68836564	 0.234998
