23
0 0
C	-0.0073320929	 1.4962500556	-0.0582550759	-0.384969
C	 0.0665420891	-0.0181554871	 0.0256159186	-0.041762
O	 0.718388306	-0.4947462384	-1.1474286401	-0.249895
C	 0.784672266	-1.8735749458	-1.2522429446	 0.234267
C	 1.3461977337	-2.2407709799	-2.6218642847	-0.216827
C	 1.539665548	-3.7611365812	-2.7271089002	-0.21273
C	 2.3472098831	-4.2836259915	-1.5304042575	-0.191971
C	 1.7262552142	-3.7827268127	-0.2246416838	-0.065428
O	 1.6212725614	-2.3677193311	-0.2131009787	-0.262315
H	 0.9966889502	 1.9260031048	-0.1170860755	 0.128217
H	-0.5655370933	 1.8082914724	-0.945693209	 0.122595
H	-0.5061443608	 1.9014270042	 0.8273483933	 0.11324
H	 0.6199587435	-0.3372933099	 0.9165656871	 0.112005
H	-0.9436989365	-0.4551324139	 0.0881747927	 0.082898
H	-0.2245047478	-2.3207788664	-1.1196772364	 0.040838
H	 0.6727707643	-1.8691407222	-3.4005216678	 0.099766
H	 2.3038667618	-1.7199140207	-2.7326764992	 0.111386
H	 0.5570819034	-4.2528328255	-2.7422049296	 0.095606
H	 2.0300833239	-4.018213901	-3.6714653902	 0.098209
H	 2.383580915	-5.379055671	-1.5285035407	 0.092497
H	 3.3805145072	-3.9209786075	-1.5904115171	 0.105217
H	 0.7294893573	-4.2380343587	-0.0856573286	 0.083228
H	 2.3379231633	-4.0502795927	 0.6417100179	 0.105927
