15
0 0
O	 0.1819544909	 1.2400242384	 0.4141546432	-0.437333
C	 0.0896237023	-0.098455045	 0.0160482621	 0.037759
C	-1.3636401286	-0.6421498833	-0.05222823	-0.232064
C	-1.3334220391	-1.5039583707	-1.308946669	-0.049107
C	-0.2358526038	-1.3203130474	-2.0535559281	-0.189962
C	 0.6210165786	-0.3074611682	-1.4106129227	 0.335482
O	 1.5396429592	 0.3335028129	-1.8704949679	-0.343875
C	-1.8207375661	-1.3635208313	 1.1280351768	 0.307885
C	-2.1923377494	-1.975677485	 2.0928055119	-0.451567
H	 0.9092700432	 1.6150806254	-0.104792258	 0.29563
H	 0.667552126	-0.7599360749	 0.6827740463	 0.111424
H	-2.0220945353	 0.2206316051	-0.2248777373	 0.14405
H	-2.1535377738	-2.1738945544	-1.5406180296	 0.136561
H	-0.0145870061	-1.7746200564	-3.0104819746	 0.131305
H	-2.5217518778	-2.5059969951	 2.952009627	 0.203811
