17
0 0
C	 0.087900718	 1.5871503343	 0.052499049	-0.424348
C	 0.0849244935	 0.0757789152	 0.107315357	-0.044313
C	 1.3040136922	-0.8069560207	-0.2146288593	-0.301443
C	 2.5273490427	-0.1545648302	 0.404603566	 0.42674
O	 3.5839163176	 0.2597180202	 0.0192665585	-0.348426
N	 1.9522267585	-0.1887503112	 1.6908155032	-0.389296
C	 0.695623851	-0.7718489979	 1.187199309	 0.350613
C	 0.0015694133	-1.8441777099	 1.970464149	-0.480093
H	 1.00619718	 2.0107754737	 0.467298497	 0.129066
H	 0.0030921176	 1.9357731575	-0.9815628757	 0.131597
H	-0.7585115236	 1.9966140464	 0.6145706108	 0.120098
H	-0.8246219846	-0.370630041	-0.2951690553	 0.095392
H	 1.2817251668	-1.5853137378	-0.9648542373	 0.111721
H	 1.9988976055	 0.5942199317	 2.3344302238	 0.236435
H	-0.4770797331	-1.4321444669	 2.8666608848	 0.125248
H	-0.7795540639	-2.3170397473	 1.3680219024	 0.125848
H	 0.7121232384	-2.6121597861	 2.290478067	 0.135162
