13
0 0
O	 0.1142583569	 1.3331897402	 0.0413914432	-0.394381
C	 0.0761990311	-0.0017427366	 0.0265403139	 0.375302
N	 0.086544375	-0.6129585722	-1.1511662036	-0.346038
C	 0.0477933599	-1.9466994952	-1.134916486	 0.078907
N	-0.0002356135	-2.731049517	-0.0614627984	-0.262803
C	-0.0098835925	-2.0974240586	 1.114111941	-0.040566
C	 0.026932663	-0.7073145307	 1.2481797406	-0.023425
C	 0.0156492228	-0.0601883466	 2.5092807713	 0.238265
C	 0.0051661254	 0.4675223037	 3.5911754566	-0.387562
H	 0.1443520216	 1.6159784231	-0.8846912114	 0.305992
H	 0.0565889323	-2.4391202638	-2.1039539303	 0.127846
H	-0.0488314297	-2.7146258371	 2.00769266	 0.129446
H	-0.0036897323	 0.9435188908	 4.5405696729	 0.199018
