20
0 0
C	-0.0073840505	 1.4200001558	 0.028438518	-0.316792
N	 0.0581437536	-0.0283447972	-0.0172954798	-0.336636
C	 0.7335730395	-0.6553361348	-1.0342765233	 0.308262
N	 1.1932483419	-0.0232221372	-2.0398542446	-0.300241
C	 1.8344638173	-0.7155018992	-3.1489036325	 0.031637
C	 1.0078489872	-0.4825179328	-4.4207615115	-0.369171
C	 3.2618375441	-0.175619204	-3.3044212665	-0.368389
C	 0.8299005532	-2.1016126738	-0.8444585552	 0.229526
N	 0.9225685745	-3.2440817374	-0.691631084	-0.338274
H	 0.9856709076	 1.878901468	 0.1185996571	 0.133788
H	-0.4626622206	 1.79711861	-0.8904447508	 0.153512
H	-0.622262544	 1.7143882414	 0.8809375607	 0.126542
H	-0.0275476127	-0.5343276403	 0.8485282703	 0.26083
H	 1.8923946385	-1.8008685778	-2.9693178586	 0.088517
H	 1.4819851231	-0.9681388053	-5.2795305791	 0.112759
H	-0.0016487472	-0.8892247152	-4.3104445715	 0.115252
H	 0.9227500282	 0.5887171814	-4.6285072677	 0.121273
H	 3.8503692927	-0.3621701163	-2.401372247	 0.113756
H	 3.7643662095	-0.6591195866	-4.1480705574	 0.112507
H	 3.243238364	 0.9043213512	-3.4813679565	 0.12134
