21
0 0
C	-0.1394130249	 1.5568655501	 0.1337076336	-0.281971
C	 1.3852032601	 1.407534437	 0.0007393491	 0.077188
O	 1.7373653701	 0.6972063076	 1.2127277874	-0.288562
C	 0.7110475613	-0.3343211277	 1.2830504999	-0.162409
C	-0.046112094	-0.0113973719	 0.0035359996	 0.320549
C	-1.0954703605	-0.8061867909	-0.7360461899	-0.341012
C	-0.9926749317	-0.2444837849	-2.1864515068	-0.202207
C	 0.4479776101	 0.3601538487	-2.3566865122	-0.270837
C	 1.1422652529	 0.2386072911	-0.9850028711	 0.005176
H	-0.5167406217	 1.9699460809	 1.0721970083	 0.096301
H	-0.6227965897	 2.0352946681	-0.7172587456	 0.103063
H	 2.0878909412	 2.2275785302	-0.1434792546	 0.072288
H	 1.1764889768	-1.3272817764	 1.2750339691	 0.096687
H	 0.1323630269	-0.2171463877	 2.2071240286	 0.095614
H	-0.8354296586	-1.8721748819	-0.7148079906	 0.099367
H	-2.1060753217	-0.7092892443	-0.3272943121	 0.099437
H	-1.1981763086	-1.0186945199	-2.9307034517	 0.099724
H	-1.7471316416	 0.5334189866	-2.3371210048	 0.10431
H	 1.0174679603	-0.1909242695	-3.1091448397	 0.102801
H	 0.3923133471	 1.3927034541	-2.7138986139	 0.104213
H	 1.9429574461	-0.5066763396	-0.9843309827	 0.070282
