23
0 0
C	 0.0950283214	 1.5539849503	 0.1828246489	-0.378988
C	-0.2795122578	 0.1055845505	-0.1633589251	-0.272808
C	 0.5518685922	-0.4900137014	-1.3104073491	 0.32869
C	 0.0618811638	 0.0157824918	-2.6664595372	-0.472994
C	 2.1048912903	-0.6318852783	-1.1633866087	 0.005648
C	 1.9389747272	-1.7286016968	-0.0919679305	-0.280583
C	 0.9604822621	-2.0148645174	-1.265821722	 0.360203
C	 0.1377735415	-3.2329039905	-1.5522528953	-0.518147
O	 2.0874742607	-1.6987243816	-2.189326727	-0.346519
H	 1.1292124659	 1.6208456804	 0.537540599	 0.117502
H	-0.0017504476	 2.2183528414	-0.6813018534	 0.121265
H	-0.5523176006	 1.9457892582	 0.9734348421	 0.113312
H	-0.2027654195	-0.5018559659	 0.7427837066	 0.095508
H	-1.3367414817	 0.0675517513	-0.4551186977	 0.09522
H	 0.0804175429	 1.1099642574	-2.709357875	 0.111331
H	 0.6808753162	-0.3721637517	-3.474924351	 0.138668
H	-0.9755033949	-0.2945916323	-2.8390596868	 0.107811
H	 2.8807944143	 0.1294764304	-1.2567055477	 0.085246
H	 2.7767215549	-2.4249341263	-0.0391261045	 0.102383
H	 1.548497758	-1.4731344703	 0.8933110153	 0.094856
H	-0.6298605246	-3.3614373242	-0.7822890085	 0.125803
H	-0.3584131039	-3.1448352639	-2.5237255533	 0.132951
H	 0.7674578493	-4.1277742211	-1.5649409791	 0.133639
