18
0 0
C	-0.0070679353	 1.4871797516	-0.0159580754	-0.489105
C	-0.0171373439	-0.0200239353	 0.0369321165	 0.289624
C	-1.3173497431	-0.7572823964	-0.2591195202	-0.139492
O	-1.1795079664	-2.0581202672	 0.2931907191	-0.244946
C	-0.2915808844	-1.9961663381	 1.402792545	-0.103287
C	 0.6487329445	-0.8445332522	 1.1064768314	-0.112856
C	 1.2567348392	-0.795787107	-0.2901398329	-0.240528
C	 1.2845745789	-1.932372424	-1.1701586312	 0.314729
N	 1.3554336393	-2.8259437363	-1.901691069	-0.353946
H	 0.9595795613	 1.8913051166	 0.2985236508	 0.125747
H	-0.2046295166	 1.8495614244	-1.0306772386	 0.135538
H	-0.7760418047	 1.9039729799	 0.6437978604	 0.128931
H	-2.1514079859	-0.2057849017	 0.206022765	 0.095765
H	-1.531299934	-0.875482507	-1.3261202488	 0.127884
H	-0.8302646882	-1.7954585389	 2.3429001089	 0.100672
H	 0.1983049844	-2.9713559978	 1.482607281	 0.129977
H	 1.2123272173	-0.3952812765	 1.9159518114	 0.104074
H	 2.1468991975	-0.1793994241	-0.3745140132	 0.131218
