18
0 0
O	-0.2151339494	 1.4671220118	-0.250576939	-0.411156
C	-0.2048608265	 0.0548148423	-0.2587080955	-0.129981
C	-1.4237686492	-0.5586098012	 0.3613474607	 0.192624
C	-2.5580745805	 0.1445972833	 0.6256110664	-0.105284
C	-3.2128020163	 0.6928775162	-0.6595732238	-0.162343
N	-4.0113117368	-0.6117170857	-0.6869858555	-0.154691
C	-3.2925925295	-1.8657983708	-0.1165471467	-0.015833
C	-1.7766763102	-2.0163795374	 0.1098058912	-0.324493
C	-3.7602539795	-0.7952012442	 0.7675653723	-0.074156
H	-0.6084268806	 1.7374830361	 0.5884685899	 0.283443
H	-0.1183392829	-0.2499384658	-1.3133532975	 0.118758
H	 0.6970805931	-0.3462536106	 0.2403110347	 0.102332
H	-3.9506000264	 1.4921323311	-0.5440346472	 0.117432
H	-2.5600605945	 0.8957580015	-1.5110754524	 0.125717
H	-3.9005105386	-2.7361509363	-0.3451054195	 0.102331
H	-1.2083195734	-2.3809308475	-0.7541709316	 0.119343
H	-1.6120061531	-2.737813579	 0.9225191492	 0.122798
H	-4.5485385157	-0.7941860039	 1.5122040744	 0.093159
