12
0 0
N	-0.2347492033	 1.2762298606	 0.4000792589	-0.415594
C	-0.053497305	 0.077365867	 0.0780524058	 0.126635
O	-1.1476979761	-0.7656041101	 0.1357655667	-0.187558
C	-0.9683206234	-2.0652080595	-0.2272755756	 0.293388
O	 0.0599804445	-2.5545275266	-0.609590269	-0.324739
C	-2.2078697817	-2.7913745332	-0.091831936	-0.018328
C	-3.2060852039	-3.4641754544	 0.0043493083	 0.189141
C	-4.414461458	-4.2558688054	 0.0918881789	 0.018722
O	-4.7408693681	-4.8691930672	 1.0781060999	-0.206228
H	 0.6389322705	 1.7948619858	 0.3207294247	 0.248013
H	 0.8546932378	-0.4267429503	-0.2498759164	 0.154869
H	-5.0226604933	-4.2518491867	-0.8335298964	 0.121678
