20
0 0
C	-0.1402734485	 1.6103732641	 0.036057619	-0.431567
C	 0.0617790235	 0.1081899956	-0.0253755241	 0.091693
C	 0.8213405999	-0.6288047583	-1.1604051212	-0.087731
C	 2.1845903234	 0.0889153311	-1.1398103823	-0.23886
C	 2.4686582683	-0.270562346	 0.3340072564	-0.052416
C	 2.6198330316	-1.8103929446	 0.2520350342	 0.176797
O	 2.899427484	-2.4647429631	 1.4625993913	-0.460026
C	 1.1172912762	-1.7097435272	-0.0511787102	-0.03802
N	 1.0470173068	-0.5216781504	 0.9237968039	-0.200605
H	 0.7944745595	 2.1688575843	-0.0546022598	 0.121754
H	-0.8137946269	 1.9422041934	-0.7617525898	 0.119262
H	-0.5942289558	 1.8816940636	 0.9945704784	 0.128933
H	-0.8960418219	-0.3919818509	 0.1639545268	 0.080511
H	 0.3672437845	-0.8608380332	-2.1251621953	 0.061079
H	 2.9212441172	-0.353434542	-1.8166606286	 0.101236
H	 2.1217212248	 1.1557415514	-1.3597221141	 0.101034
H	 3.1416562202	 0.3454326977	 0.9285878543	 0.076119
H	 3.3020596006	-2.2142680048	-0.4995078889	 0.080507
H	 2.290240059	-2.0946302383	 2.1152928962	 0.29079
H	 0.4185534138	-2.5347522724	 0.096355594	 0.07951
