16
0 0
C	 0.0007270823	 1.4640111734	 0.0185379777	-0.314471
N	 0.0137710287	 0.0180032754	-0.0636691422	-0.225626
C	 0.5193386448	-0.6189261587	 0.9023099214	 0.106399
N	 0.5732743603	-2.0110096578	 0.9058243453	-0.156185
C	 0.1097984326	-2.8844281381	-0.0898363366	 0.084466
N	 0.2724196731	-4.1267369513	 0.1429183699	-0.250119
C	 0.9273211294	-4.2200908088	 1.4496580859	-0.294186
C	 1.1209778937	-2.7867835979	 1.9457651792	 0.401588
O	 1.6102749091	-2.3594605564	 2.9597326188	-0.352668
H	 0.5419570858	 1.8819658574	-0.8376345752	 0.136027
H	-1.0319520011	 1.8231926465	-0.053546219	 0.136024
H	 0.4467564867	 1.8603292599	 0.9435369979	 0.108912
H	 0.9561145352	-0.189238176	 1.8104765928	 0.130527
H	-0.34723324	-2.4597331556	-0.9745854421	 0.170307
H	 0.3163941309	-4.7940706558	 2.1547056106	 0.159509
H	 1.8907505587	-4.7350885862	 1.3698921654	 0.159496
