21
0 0
C	 0.4481004029	 1.45010584	 0.2651322967	-0.37273
C	-0.2868640146	 0.179655952	-0.1779989655	-0.208601
C	 0.329183597	-0.4378173883	-1.4096014807	-0.109512
O	 1.6179650625	-1.0984049573	-1.2164378788	-0.331562
C	 0.5048865624	-1.8701600116	-1.5910683011	 0.567608
C	-0.0140121874	-3.1535325013	-0.9205060694	-0.14923
C	-0.9663730192	-3.2723984336	-2.1506968639	-0.220736
C	 0.4119953239	-2.8654623407	-2.7581939534	-0.153673
C	 1.0555167477	-3.9026826301	-1.7809853904	-0.226136
H	 1.4970096172	 1.2278409929	 0.4818385491	 0.135537
H	 0.4220568197	 2.2166594935	-0.5171245993	 0.114472
H	-0.0053576621	 1.8751387682	 1.1653725916	 0.112497
H	-0.2802391544	-0.5594182477	 0.630361438	 0.102906
H	-1.3391259587	 0.4084380464	-0.393133465	 0.099784
H	 0.310678129	 0.192049279	-2.3022782759	 0.088942
H	-0.257814189	-3.3183332756	 0.1286411388	 0.078277
H	-1.3043364076	-4.2837935303	-2.3874828824	 0.096106
H	-1.7793351494	-2.5456295224	-2.2256309416	 0.093976
H	 0.6547446953	-2.6970910462	-3.8070718973	 0.078477
H	 2.1012039188	-3.7418410924	-1.5131834206	 0.112672
H	 0.8442453162	-4.9538574745	-1.9940328987	 0.090927
