17
0 0
C	 0.2155756623	 1.6587658894	 0.0903549954	-0.398328
C	 0.08168928	 0.136865512	-0.0241418938	-0.132904
C	 0.7872605636	-0.5439305593	-1.1889114096	-0.045877
C	 2.2660529797	-0.5423629856	-1.2596066158	-0.25315
N	 1.558895641	-1.7373728568	-0.7326331384	-0.118867
C	 1.5081631579	-1.7555930908	 0.6843329674	 0.249339
N	 2.1195320609	-2.5947337189	 1.4064116548	-0.469669
C	 0.6317735786	-0.6107413365	 1.1904994646	 0.336977
O	 0.4479897871	-0.3586580507	 2.3529510102	-0.310254
H	 1.2655713126	 1.9654510986	 0.0952474584	 0.125554
H	-0.2796597746	 2.1591156748	-0.7461773959	 0.125635
H	-0.2417503595	 1.9999555982	 1.0229583516	 0.14511
H	-0.9867167017	-0.1176686915	-0.0724983048	 0.1242
H	 0.2240734389	-0.7032830655	-2.103044831	 0.109082
H	 2.7668073262	-0.7043885255	-2.2084668818	 0.139548
H	 2.8255965887	 0.0625226358	-0.5495222561	 0.131012
H	 1.9024518384	-2.3823303378	 2.3867138848	 0.242594
