19
0 0
C	-0.2875432161	 1.3606554749	-0.8192938679	-0.402728
C	 0.1160050804	-0.1019702077	-0.6474708744	 0.005098
C	 1.4148810346	-0.5012634917	-1.4155314027	-0.247658
C	 2.1999937327	-0.5418736173	-0.056422191	-0.126058
C	 3.1007322041	 0.6502869707	 0.1079395226	 0.148884
O	 2.8891393379	 1.5919032313	 0.8320217213	-0.238074
C	 0.8340523436	-0.488769152	 0.6856218303	-0.091783
C	 0.675667169	 0.3262931466	 1.9479409126	 0.155277
O	-0.2854425379	 1.0085293092	 2.1996551588	-0.262014
H	 0.5408974798	 2.0374623279	-0.5901365003	 0.131303
H	-0.5946228285	 1.5390853139	-1.8558726813	 0.104809
H	-1.1131177698	 1.6195063599	-0.1545236179	 0.145715
H	-0.7388743967	-0.7439821939	-0.8748871411	 0.080267
H	 1.3661979905	-1.4836175765	-1.8894625577	 0.112491
H	 1.7717787992	 0.2241388548	-2.1525468161	 0.110662
H	 2.8061735471	-1.4431768471	 0.0846845944	 0.09599
H	 4.0115320846	 0.6198683918	-0.532987768	 0.090222
H	 0.5645488072	-1.5134173261	 0.9771243284	 0.107751
H	 1.4931723983	 0.1882410511	 2.6889244801	 0.079847
