20
0 0
N	-0.1139812286	-1.1158541145	-0.0827305652	-0.303088
C	-0.0656040518	 0.0385951626	-0.0790469435	 0.256308
C	 0.0213413691	 1.4959937787	-0.072086536	-0.345836
C	 1.4768773053	 1.9959816055	-0.0284377673	-0.122968
N	 1.4940376967	 3.4485906595	 0.0030288683	-0.299559
C	 2.8262990048	 4.0202775106	 0.1798259377	-0.16012
C	 2.767813405	 5.5263967718	 0.1291336388	 0.018367
C	 3.9498017084	 6.3125554437	-0.2917507825	-0.24526
N	 2.7688426931	 6.226678221	-1.1713181647	-0.317985
H	-0.4821603822	 1.8787309944	-0.9682721279	 0.149085
H	-0.5237658685	 1.890955312	 0.7911424416	 0.164554
H	 1.9529118045	 1.6258839013	 0.8866618352	 0.128145
H	 2.0388819114	 1.5594436849	-0.873196515	 0.102288
H	 1.0831095295	 3.8195845551	-0.8491942659	 0.221027
H	 3.2036437502	 3.6959565867	 1.1590702531	 0.115024
H	 3.5572641671	 3.661782025	-0.5722005933	 0.074086
H	 2.0813188772	 5.967373606	 0.8483682054	 0.104026
H	 4.1314273597	 7.2930477245	 0.1381312703	 0.124454
H	 4.8485743555	 5.7700468941	-0.5748032092	 0.112771
H	 2.9612088437	 5.561453957	-1.9184777297	 0.22468
