19
0 0
C	-0.1764221993	 1.5725963103	 0.0873838479	-0.502719
C	 0.0151869981	 0.0726489111	 0.0550356579	 0.162004
C	-1.2491320466	-0.8419204701	 0.2848925979	 0.076547
O	-1.6432064217	-1.67600024	-0.780333706	-0.423184
C	-0.4998351497	-1.6285454889	 1.3877699773	-0.234965
C	 0.7903445634	-0.8199981563	 1.1132683524	-0.086327
C	 1.6825778991	-1.4021612174	-0.0210811299	-0.361206
C	 0.9156754878	-0.5295457355	-1.0290134698	 0.398619
O	 1.0151494681	-0.3270016132	-2.2058348117	-0.320643
H	 0.7816224091	 2.1016420277	 0.1195909376	 0.124641
H	-0.7072227871	 1.9092086554	-0.8105640024	 0.131146
H	-0.7610680646	 1.8809015888	 0.9609452495	 0.118632
H	-2.0962628411	-0.2520965408	 0.664541041	 0.070975
H	-1.8722713164	-1.1238958054	-1.5363124239	 0.291619
H	-0.9182986934	-1.4671283513	 2.3835403301	 0.10556
H	-0.4406377566	-2.7033966173	 1.2002985534	 0.11229
H	 1.313660246	-0.3868158334	 1.9648796092	 0.074474
H	 2.7358163949	-1.1080483761	 0.0424897103	 0.130897
H	 1.63519168	-2.4815454778	-0.1916847809	 0.131641
