11
0 0
N	-0.0360611573	 1.2566295005	 0.4380834755	-0.552471
C	-0.0116681637	 0.0919496693	-0.0452400583	 0.501611
N	-1.1735788432	-0.5600043635	-0.4052392988	-0.365806
C	-1.2352428429	-1.8203032091	-0.9345991741	 0.478006
N	-2.3252441484	-2.3824055955	-1.2514991553	-0.508036
N	 0.0297494083	-2.4760667908	-1.1114211268	-0.126722
N	 1.1027500444	-1.9790530244	-0.8229000848	 0.065083
O	 1.1369842282	-0.6186770369	-0.2539026985	-0.281649
H	 0.9026003216	 1.5881489938	 0.6475830953	 0.244356
H	-2.037119359	-0.0557838067	-0.2608448205	 0.293593
H	-2.138484478	-3.3117150767	-1.6241964937	 0.252034
