21
0 0
C	 0.1855587481	 0.8334935226	 1.3004625619	-0.393373
C	-0.0195066384	-0.0936785129	 0.1175734722	-0.030008
O	-1.22187765	-0.8424491755	 0.3575611586	-0.262515
C	-1.5995336232	-1.719491785	-0.5993326194	 0.362324
N	-0.9190864205	-1.853776413	-1.6635281075	-0.55427
C	-2.8612696334	-2.4371519148	-0.211772017	 0.256217
C	-3.5075320073	-3.2804259313	-1.2882192924	-0.483382
C	-3.0011300715	-2.834924736	 1.2237653184	-0.260647
N	-3.8052587723	-1.7359910992	 0.6854666164	-0.350643
H	 1.0959599439	 1.4225642481	 1.1556270851	 0.123832
H	-0.6561959493	 1.5238554798	 1.4079706465	 0.126483
H	 0.2873343276	 0.2672124997	 2.230886584	 0.126185
H	-0.1251899219	 0.4547396817	-0.8237289122	 0.123818
H	 0.8140142934	-0.7922162391	-0.0087401906	 0.12101
H	-1.3400708337	-2.5435752941	-2.2801194222	 0.225101
H	-2.8638804895	-4.1150323752	-1.5864088914	 0.122053
H	-4.4468955291	-3.6901088638	-0.9119201521	 0.134778
H	-3.7340710395	-2.6824878415	-2.1773121495	 0.128682
H	-3.5534598984	-3.74100005	 1.4589751162	 0.1175
H	-2.1830385346	-2.5993638686	 1.8964555682	 0.124059
H	-3.3842136905	-0.8549113819	 0.9704749367	 0.242794
