21
0 0
C	-0.0995306099	 1.55249119	 0.0829737577	-0.401549
C	-0.0232686713	 0.0171018864	 0.0523697824	 0.2575
C	 0.6681100572	-0.5018523211	 1.3239241447	-0.401549
C	-1.4410971921	-0.5711447295	-0.0443912422	-0.406501
C	 0.7674212706	-0.4477926243	-1.2063617549	-0.373977
C	 2.1430206444	 0.0190378583	-1.2844108999	 0.07376
C	 3.28789409	 0.4004826009	-1.3611327045	 0.06128
C	 4.6464699612	 0.8698887629	-1.4243360634	 0.014115
O	 5.4211789557	 0.6188171503	-2.3196023942	-0.23054
H	 0.898514219	 1.9984942724	 0.1283867872	 0.12321
H	-0.6026112215	 1.9424053347	-0.8089539874	 0.110953
H	-0.6619576147	 1.892457029	 0.9585593675	 0.114186
H	 0.1162116684	-0.1901061442	 2.2165456288	 0.114186
H	 0.7197293791	-1.5963709936	 1.3286793427	 0.110952
H	 1.6888169969	-0.1164998146	 1.4059903116	 0.12321
H	-1.9577182183	-0.2217360397	-0.945254047	 0.112152
H	-1.4179585904	-1.6662254921	-0.0726816962	 0.112152
H	-2.0421546221	-0.2731880502	 0.8206629729	 0.115162
H	 0.7716814294	-1.5455649415	-1.2466265672	 0.137957
H	 0.2376976142	-0.1164547889	-2.1098833227	 0.137957
H	 4.9475257743	 1.502031875	-0.5635732259	 0.095386
