15
0 0
C	 0.2120849266	 1.3435179929	-0.7055667606	-0.499907
C	 0.0590376994	-0.0165972928	-0.2117844769	 0.11427
C	-0.0579028256	-1.143222322	 0.193917223	 0.017201
C	-0.1837188632	-2.4988345949	 0.7053057701	-0.28387
N	-1.3513787596	-3.1960219696	 0.1599956459	 0.026477
C	-2.4567589903	-2.7426035042	-0.4550899869	 0.079257
N	-3.2457645165	-3.7623184227	-0.7189017562	-0.232307
N	-2.5963653795	-4.857957946	-0.2454953258	-0.094026
N	-1.4626486185	-4.5351097473	 0.2836784777	-0.126715
H	 1.2523083972	 1.6740801405	-0.6171210796	 0.162513
H	-0.0702841516	 1.4127686872	-1.7612362339	 0.161405
H	-0.4119368486	 2.0449868186	-0.1422363743	 0.159052
H	 0.6924710206	-3.10326129	 0.4503438222	 0.175294
H	-0.2653208272	-2.4948939091	 1.798607162	 0.169653
H	-2.6335127033	-1.7068373705	-0.6878572067	 0.171702
