18
0 0
C	 0.1005424893	 1.4938184208	-0.1275627738	-0.383742
C	 0.5303214412	 0.0400105895	-0.0428472055	-0.050544
O	 0.2314132174	-0.5769629859	-1.2927979539	-0.255979
C	 0.4364789057	-1.9672604719	-1.3629315994	-0.01277
C	-0.5690710736	-2.5544602707	-2.3477180919	-0.410214
C	 1.8734474831	-2.2721209244	-1.8087433475	 0.275605
F	 2.7795288426	-1.745960886	-0.96660708	-0.080448
F	 2.0844565452	-3.5997363642	-1.8410966253	-0.080052
F	 2.1309133157	-1.787735768	-3.0276060653	-0.072439
H	 0.6440530732	 2.0084418078	-0.9248202014	 0.132165
H	-0.9699513456	 1.5687446389	-0.3382417546	 0.126015
H	 0.3071744523	 2.0040424132	 0.8179118713	 0.117689
H	 1.6012079193	-0.0361427751	 0.1791556691	 0.108924
H	-0.0139914323	-0.4797083407	 0.7621130109	 0.090052
H	 0.3198286698	-2.4348023131	-0.3734065554	 0.091279
H	-1.5813937695	-2.3789523444	-1.978494796	 0.128122
H	-0.4625377014	-2.0678423359	-3.3200633285	 0.143951
H	-0.4138339624	-3.6288060199	-2.4696146328	 0.132386
