18
0 0
O	-0.0589527767	-0.0458305595	-0.0313911574	-0.275643
C	-0.0381271497	 1.1407088032	 0.0842859744	 0.393202
C	-1.0945880783	 2.2457349277	 0.229848515	-0.288721
N	 0.0052905727	 3.1771972777	 0.5758409556	-0.084471
C	-0.0046698707	 4.4819240555	-0.0551440076	-0.144733
C	 1.1314194454	 5.3668517118	 0.4896702419	-0.356833
C	 1.1438062546	 6.6910894271	-0.1171562797	 0.295417
C	 1.1267663056	 7.7760157098	-0.633900788	-0.437553
C	 1.0586302947	 2.2130753272	 0.1714828164	-0.294968
H	-1.5867456881	 2.4562866483	-0.7343775637	 0.119751
H	-1.8617818032	 2.1156520488	 1.0002448607	 0.135333
H	 0.0823811601	 4.4163678022	-1.1568371318	 0.09121
H	-0.9643747676	 4.9620440742	 0.1620366853	 0.121362
H	 1.0224346212	 5.4448725263	 1.5777057785	 0.142016
H	 2.0951831131	 4.8720028709	 0.3114239308	 0.132784
H	 1.1236686972	 8.7387080004	-1.081732131	 0.197121
H	 1.862570244	 2.0529589172	 0.8969097054	 0.135525
H	 1.5031373657	 2.4110943411	-0.8189355947	 0.1192
