20
0 0
C	 0.3024428918	 1.4391915989	 0.0091280947	-0.338862
N	 0.3496462476	-0.0151773877	 0.0696254758	-0.341009
C	 0.5225373607	-0.6625388864	-0.9869288991	 0.463194
O	 0.6814486133	-0.2203670557	-2.2980327475	-0.312445
C	 0.7469345567	-1.601316448	-2.7994135641	 0.450997
C	-0.2202955309	-1.8396189223	-3.9240042762	-0.478397
C	 2.2184757995	-2.0788100325	-2.8776378143	-0.276228
C	 2.1183676479	-2.6129185821	-1.4150512351	-0.22842
C	 0.6391469552	-2.1233673751	-1.3314033633	-0.248263
H	 1.1311031484	 1.850954655	 0.5966638289	 0.124819
H	 0.3575903578	 1.8480964857	-1.0066343942	 0.124167
H	-0.6237870163	 1.7868811781	 0.4796567588	 0.124148
H	 0.0582553259	-1.2426793628	-4.7995046994	 0.133499
H	-0.2164677408	-2.894057277	-4.2169152332	 0.122948
H	-1.2365861159	-1.561576091	-3.6299376097	 0.131113
H	 2.3838440792	-2.8635592944	-3.6201679375	 0.106152
H	 2.9296021451	-1.2696376623	-3.0536812356	 0.116235
H	 2.1997342887	-3.6996825553	-1.3523785567	 0.110891
H	 2.7947185766	-2.1708099072	-0.681611599	 0.120393
H	-0.1227861501	-2.8023450377	-0.9529547033	 0.095069
