21
0 0
C	-0.160585028	 1.5859305232	-0.1435908041	-0.479679
C	-0.0166505313	 0.0740890541	 0.0248319617	 0.29298
C	-1.360815121	-0.6133014405	-0.2070597419	-0.460557
C	 1.2361153564	-0.6664753704	-0.5586885626	 0.007735
C	 2.1589446036	-0.0162443151	 0.4932535745	-0.274841
C	 0.8665536707	-0.5125505076	 1.1909566626	 0.349008
C	 0.5906108003	-0.7121253356	 2.6533216889	-0.191392
O	 1.5922755791	-1.5119891399	 3.2537020328	-0.41512
O	 1.0026440093	-1.7751497916	 0.3991336146	-0.359925
H	 0.760860461	 2.1473948634	 0.0161530528	 0.118742
H	-0.5173558962	 1.8158988185	-1.1539434576	 0.121947
H	-0.9108152884	 1.973370584	 0.5548223486	 0.121895
H	-1.730861302	-0.3933963327	-1.2149858758	 0.111138
H	-1.2766877035	-1.6935703149	-0.0938932079	 0.138374
H	-2.1124764114	-0.2414790661	 0.4985832252	 0.111274
H	 1.4516161664	-0.9456997464	-1.5913662239	 0.08993
H	 3.0442849971	-0.6034847068	 0.7338662307	 0.110855
H	 2.3684483004	 1.0515464996	 0.4472417182	 0.0984
H	 0.5932966691	 0.2535509976	 3.1706320849	 0.115389
H	-0.4111990093	-1.1549874938	 2.7736878137	 0.098416
H	 1.719096358	-2.2692947692	 2.6693466444	 0.295431
