18
0 0
C	-0.1844940097	 1.5052663734	 0.0524851416	-0.385074
C	 0.0825294837	 0.0069950648	 0.0492913354	 0.056687
C	 0.7795416969	-0.5055875916	-1.2738129119	-0.292219
C	 1.5186558746	-1.7344416059	-0.7415745715	 0.301776
O	 0.7329383624	-2.8863607114	-0.9616119785	-0.481746
C	 3.0552709717	-2.0132014856	-0.6237495294	-0.17946
O	 2.9751794639	-1.7951674609	 0.8508711473	-0.278272
C	 1.7229419814	-1.2665983663	 0.664697469	 0.35343
N	 1.0375333364	-0.3392194893	 1.1690892993	-0.32042
H	 0.7529431884	 2.0629603918	-0.0428969569	 0.118661
H	-0.8383247659	 1.7804967067	-0.7820535289	 0.111373
H	-0.6651392583	 1.8103763478	 0.9855526983	 0.12889
H	-0.8614283888	-0.5309021607	 0.2013485482	 0.094753
H	 0.0775215459	-0.7479435777	-2.0742016251	 0.117308
H	 1.4760504629	 0.2614876009	-1.6273786052	 0.107588
H	 0.9625055709	-3.5532815275	-0.3042377426	 0.290093
H	 3.3685969039	-3.0335919429	-0.8523490798	 0.124348
H	 3.7287823995	-1.2757313655	-1.0658209993	 0.132283
