11
0 0
F	 0.0016440107	 0.031322797	 0.0036938907	-0.060565
C	-0.0163545103	 1.3569044766	 0.010602297	 0.382019
C	-1.2364060161	 2.0187751844	 0.0309508152	-0.43159
C	-1.1629165362	 3.4052094604	 0.0369121745	 0.376766
F	-2.2925701563	 4.0955730373	 0.0561396804	-0.059667
N	-0.0538223835	 4.1163702717	 0.0250169059	-0.370695
C	 1.0741691113	 3.4357469804	 0.0058453498	 0.376766
F	 2.1846606296	 4.1566886737	-0.0059692751	-0.059666
C	 1.1852744488	 2.0518319357	-0.0026559364	-0.43159
H	-2.1794198207	 1.4912796154	 0.04144755	 0.139111
H	 2.1422611826	 1.5502726774	-0.0185123419	 0.139111
