19
0 0
O	 0.029955635	-0.0647612569	-0.0009789253	-0.304978
C	-0.0059511085	 1.1423337756	-0.014792485	 0.378208
C	-1.3013024767	 1.9404651421	-0.0482911112	-0.300695
C	-1.2178767458	 3.0657056516	-1.0955204979	-0.100752
O	-0.0626948256	 3.8676410457	-0.8998724469	-0.284022
C	 1.1201526071	 3.1257772749	-1.0412445024	 0.427213
C	 1.6523772142	 2.9316968345	-2.4419583526	-0.320413
C	 2.3096849306	 3.910170577	-1.4830798948	-0.332284
C	 1.2450572731	 2.0136537835	-0.0076326481	-0.361485
H	-2.139848939	 1.2672462794	-0.2427847367	 0.121298
H	-1.4427577142	 2.3966610116	 0.9403836439	 0.127115
H	-1.2126993063	 2.6341617144	-2.1078868312	 0.102969
H	-2.0766213406	 3.7368857353	-1.0144573148	 0.11493
H	 2.1720554988	 2.0108678148	-2.6832875225	 0.121273
H	 1.0710644603	 3.3547250337	-3.2535067121	 0.121671
H	 2.150063796	 4.9664336357	-1.6664414404	 0.128585
H	 3.2775362615	 3.6584033991	-1.0634307159	 0.116878
H	 1.3346725828	 2.4700929808	 0.9882287055	 0.12457
H	 2.1229207173	 1.3872658072	-0.1795341617	 0.119917
