18
0 0
C	-0.125072948	 1.554212738	-0.1246423556	-0.416807
C	 0.0136229643	 0.044091584	-0.0196351266	-0.065363
C	 1.054744277	-0.643867374	-0.9133130627	 0.033195
O	 2.3513844619	-0.1807885847	-0.5021915276	-0.24826
C	 1.7507649734	-1.2443073466	 0.2289744553	-0.001139
C	 0.776594992	-0.5885335512	 1.2482710456	 0.105564
C	 1.4174904835	 0.3559466353	 2.2681044428	-0.455284
C	-0.058826987	-1.5875558442	 1.9043914367	 0.235359
N	-0.7145731735	-2.3880609111	 2.4212041541	-0.34208
H	 0.8515225437	 2.0433451975	-0.1058029245	 0.138134
H	-0.6181727888	 1.8204441642	-1.0656564239	 0.125459
H	-0.7328844149	 1.9568095254	 0.6914642973	 0.127344
H	-0.9585855861	-0.4448584891	-0.1229843888	 0.107429
H	 0.9550700818	-0.9870911961	-1.936098016	 0.11486
H	 2.3011845065	-2.1710793629	 0.3386850866	 0.124078
H	 2.1171797756	 1.0212609651	 1.7598977782	 0.14624
H	 0.6595921185	 0.9570268432	 2.7777382568	 0.135234
H	 1.9632452601	-0.2126370428	 3.0266111222	 0.136038
