19
0 0
C	 0.2950081405	 1.4877797128	 0.2423747225	-0.374451
C	-0.2206022451	 0.1277443281	-0.2414651111	-0.194021
C	 0.6171230117	-0.4482259903	-1.3649054141	-0.079206
C	 1.8833832435	-1.2171669571	-1.0660342669	-0.356051
C	 0.6643324315	-1.9418677708	-1.5622134658	 0.312343
O	-0.0861983752	-2.873600198	-0.7729186291	-0.316133
C	-0.3740150987	-3.7114244537	-1.9193148078	-0.192051
C	 0.442708036	-2.7494718849	-2.8023246226	 0.278844
O	 0.755236455	-2.6749186142	-3.9532519719	-0.295829
H	 1.3197578585	 1.4097831705	 0.6199020179	 0.119499
H	 0.2959085363	 2.2233491985	-0.569258977	 0.116872
H	-0.3325856283	 1.8806051937	 1.048128376	 0.115676
H	-0.2443846996	-0.5853881092	 0.5895778323	 0.115995
H	-1.2577822236	 0.2256948426	-0.5849344986	 0.104968
H	 0.6188135116	 0.1252368188	-2.289871824	 0.106127
H	 2.7318234667	-1.1391667776	-1.7376984873	 0.133454
H	 2.1298775445	-1.3864950142	-0.0222068568	 0.132689
H	 0.0364006415	-4.7221286146	-1.8164684295	 0.135917
H	-1.444648977	-3.7625571106	-2.1478563359	 0.135357
