21
0 0
C	-0.5835395687	 1.487072202	 0.1481168204	-0.399149
C	 0.1940972841	 0.1954661784	-0.0622117847	 0.145727
O	 1.1765821818	 0.4724250315	-1.0654601837	-0.272901
C	 2.2903702111	-0.4056691814	-1.0855381764	-0.123374
C	 2.6965480683	-0.8554698104	 0.3300005906	 0.384263
O	 3.9605042274	-1.4615303887	 0.3561757695	-0.482322
C	 1.5493192665	-1.6943964524	 0.9194909739	-0.270412
C	 0.873653578	-0.3281214408	 1.2164835125	-0.037908
C	 2.3042347368	 0.2767018433	 1.325722778	-0.291456
H	 0.0552931779	 2.2570392809	 0.5917726678	 0.120777
H	-0.9561316453	 1.8622538068	-0.8087690882	 0.125161
H	-1.4373462348	 1.316633742	 0.8110604489	 0.111589
H	-0.4948864416	-0.5834159943	-0.432913212	 0.0647
H	 2.0966817984	-1.2933598956	-1.709213662	 0.095285
H	 3.1094901475	 0.1593366941	-1.5509618155	 0.089485
H	 4.6017798816	-0.8502998974	-0.0237694178	 0.27619
H	 1.0348375459	-2.3969370982	 0.2561139667	 0.091215
H	 1.8650979678	-2.2059816193	 1.8320478656	 0.103775
H	 0.2060211553	-0.2621279027	 2.0772995666	 0.069248
H	 2.7446194094	 0.0971759649	 2.3089060934	 0.100918
H	 2.4564782127	 1.3141884073	 1.0191039065	 0.099187
