23
0 0
C	-0.1383063071	 1.3907269596	 0.019302268	-0.234615
O	 0.1436099806	 0.0136960221	 0.07188986	-0.244309
C	 0.6896570093	-0.5133740522	-1.1328153498	 0.106465
C	 1.2449194996	-1.9221656682	-0.8488331141	-0.259827
C	 0.8870094586	-2.7907553413	-2.0794161908	-0.066317
C	 0.5118180921	-4.2349290175	-1.7243903216	-0.402063
C	-0.2170281478	-1.9872873143	-2.7531758329	 0.337211
C	-1.0147580686	-2.5430424236	-3.8923636982	-0.494653
C	-0.3139236545	-0.7613093537	-2.2351309249	-0.215387
H	 0.7566609994	 1.9814707354	-0.2359224925	 0.099665
H	-0.9259377873	 1.6348123361	-0.7099482326	 0.102624
H	-0.4839488304	 1.6895962246	 1.0124790235	 0.123422
H	 1.4809231623	 0.1760518424	-1.4791617588	 0.059725
H	 2.3131674158	-1.9215808686	-0.6187321403	 0.09468
H	 0.7166976491	-2.2960136164	 0.0346461166	 0.115568
H	 1.747755787	-2.8311633849	-2.7653157108	 0.075118
H	-0.3700506314	-4.2604930637	-1.0744464483	 0.117695
H	 0.2926893925	-4.8296227731	-2.6170207683	 0.111535
H	 1.3327892155	-4.7277562864	-1.1932329363	 0.114804
H	-1.5851159386	-3.4291324202	-3.58874694	 0.129893
H	-1.7193056598	-1.8058276308	-4.2863625784	 0.121822
H	-0.3607084107	-2.8622189531	-4.7144439402	 0.123282
H	-0.9996690555	 0.0032763778	-2.5852447992	 0.083662
