21
0 0
C	 0.262150107	 1.6088549617	 0.2303952354	-0.290108
C	 1.3713753687	 0.7142493171	-0.2533921807	-0.242581
C	-0.0153340563	 0.1502031255	-0.0506921373	-0.032122
C	-0.3280189912	-0.7646796231	 1.1117003719	-0.020403
C	-0.8730894159	-2.1725093052	 1.1221382722	-0.102974
C	-0.2079920599	-3.2098249944	 0.1753282336	-0.054485
C	 0.9152515906	-2.6844832839	-0.6772214418	-0.299562
C	 1.1462546725	-2.9103929414	 0.7933463666	-0.051678
C	 0.4876176595	-1.87192532	 1.745345959	-0.093101
H	 0.2844288692	 1.9215754369	 1.2700565017	 0.107835
H	-0.139831986	 2.3526766468	-0.4488986148	 0.108263
H	 1.7381024994	 0.84292982	-1.2664338981	 0.10773
H	 2.1303248182	 0.4159972811	 0.4620106603	 0.117835
H	-0.5864192075	-0.0470380113	-0.9534193058	 0.093607
H	-0.8242126119	-0.2167079176	 1.9147405037	 0.090043
H	-1.7996779478	-2.4033256532	 1.6340600591	 0.082726
H	-0.6589275053	-4.1769355226	-0.0062270378	 0.084531
H	 1.3696040738	-3.4480646202	-1.30373947	 0.104762
H	 0.9097286984	-1.7020773394	-1.1247523981	 0.123234
H	 1.8851354194	-3.61497028	 1.1529004178	 0.084458
H	 0.7407556249	-1.8446495966	 2.7984225629	 0.08199
