17
0 0
C	 0.3975449035	 0.5634288754	-0.7737126597	-0.479617
C	-0.2496588478	 0.1346636898	 0.5266401688	 0.380542
O	 0.156027782	 0.4859328608	 1.6093926922	-0.299994
C	-1.4667404859	-0.7967552526	 0.4002467038	-0.392323
C	-1.0406255866	-2.2014498465	 0.0875469591	 0.262746
C	-0.9124116719	-3.2610653427	 0.9498211275	-0.171833
N	-0.4615655899	-4.3100833044	 0.1789703628	-0.228575
C	-0.3338852697	-3.8492530864	-1.0953686224	 0.010834
N	-0.6736859796	-2.5845368621	-1.1873088117	-0.297579
H	 1.3481029325	 1.0604265634	-0.5756176228	 0.131702
H	 0.5307586642	-0.2982908573	-1.4348153819	 0.166866
H	-0.2721152545	 1.2597143775	-1.2940667338	 0.135779
H	-2.003164063	-0.7647251253	 1.3509526707	 0.118949
H	-2.1249321521	-0.4363833858	-0.3980195682	 0.12037
H	-1.0946349473	-3.3627726068	 2.006427131	 0.138018
H	-0.2714094072	-5.2445263187	 0.49968956	 0.270288
H	 0.0019498834	-4.4774406484	-1.9067540254	 0.133828
