17
0 0
C	-0.2343428832	 1.459457346	 0.0321304711	-0.492745
C	 0.1191754839	 0.0008258298	-0.0109344365	 0.362854
O	-0.6401104629	-0.8671402441	 0.8491300569	-0.281586
C	 0.7742671916	-0.7767238034	 1.0549568916	-0.058747
C	 1.5568808269	-1.9167892687	 0.4170928277	 0.012384
O	 0.7357402416	-2.8710013329	-0.2605905941	-0.240851
C	 1.3596194711	-1.8425204226	-1.0378613733	-0.011177
C	 0.4073162721	-0.6835134878	-1.3675100592	 0.051316
O	-0.773925617	-1.1046785431	-2.0127101173	-0.434401
H	 0.5829123655	 2.0727940521	-0.3617241789	 0.122787
H	-1.122794237	 1.6461504543	-0.5805182543	 0.144058
H	-0.4489123904	 1.7726981344	 1.0568513327	 0.131354
H	 1.0929587461	-0.355896391	 2.0048960488	 0.098758
H	 2.4516512805	-2.3065410125	 0.8934307516	 0.102621
H	 2.0833673338	-2.187604232	-1.7720130027	 0.104832
H	 0.9012558597	 0.0220029579	-2.0443582249	 0.087836
H	-1.1864567724	-1.7295598764	-1.4008180394	 0.300705
