19
0 0
O	 0.0071216732	 0.3472352334	 1.1001462024	-0.315343
C	-0.0129533088	 1.2402246868	 0.2865908381	 0.388211
C	-1.3135757392	 1.8277376345	-0.244712068	-0.362596
C	-1.1323404353	 3.1517435173	-0.9756517365	 0.020219
C	-0.0648485417	 3.2539449825	-2.1113263863	-0.06185
C	-0.080294652	 4.7906625639	-1.8873723303	-0.22923
C	-0.0562480211	 4.1681097536	-0.4656048908	-0.07179
C	 1.0311638149	 3.1771980603	-1.0010976637	 0.020219
C	 1.2606342395	 1.8580243042	-0.2749884863	-0.362596
H	-1.7643389511	 1.0824020638	-0.9153595709	 0.130074
H	-2.0054894356	 1.9228756452	 0.5997165096	 0.129904
H	-2.0987678399	 3.6024301921	-1.2245410143	 0.06656
H	-0.0698309152	 2.7230596592	-3.0660107803	 0.067564
H	 0.8139768056	 5.3383947757	-2.196424578	 0.091402
H	-0.9942240798	 5.3171205271	-2.1751575303	 0.091402
H	-0.0512595354	 4.6983071506	 0.4889110253	 0.071311
H	 1.9806013593	 3.650425697	-1.2725202736	 0.06656
H	 1.9697848975	 1.9696464299	 0.5529615559	 0.129904
H	 1.7129103443	 1.1233133732	-0.9562570326	 0.130074
