22
0 0
C	-0.2195726424	 1.5078081815	 0.0966414422	-0.395041
C	 0.0023885871	-0.0079455716	 0.0491357008	-0.061222
C	 0.6868867904	-0.4285893751	-1.2783925149	-0.187657
C	 0.424567639	-1.8763125604	-1.7094807784	-0.205846
C	 0.9001076602	-2.9425029442	-0.7174465557	-0.198953
C	 0.2994404265	-2.811659206	 0.6813292006	-0.075449
O	 0.9336397613	-1.8147480191	 1.4872354508	-0.254393
C	 0.8024122907	-0.4757216646	 1.2524426896	 0.390519
N	 1.3689465177	 0.3539584842	 2.0262343862	-0.50796
H	 0.7305838339	 2.0414080721	 0.0178236993	 0.134488
H	-0.8656042972	 1.8138169775	-0.7326407282	 0.098111
H	-0.6837216806	 1.8105571563	 1.0370961432	 0.126746
H	-0.9822631503	-0.4955275303	 0.0863932156	 0.084638
H	 0.3208633766	 0.2361065532	-2.0687427667	 0.099719
H	 1.7654334072	-0.242556476	-1.1974244341	 0.108788
H	-0.6550777421	-2.0040962803	-1.8715928306	 0.095591
H	 0.9000922946	-2.0530567289	-2.6812331844	 0.098897
H	 0.638662814	-3.9350353924	-1.10468796	 0.100581
H	 1.9926394593	-2.9215271641	-0.6186237098	 0.111933
H	-0.7838007745	-2.6383126018	 0.6326251253	 0.105982
H	 0.456842382	-3.7350683097	 1.244711247	 0.116344
H	 1.8712519666	-0.1476490603	 2.7617281623	 0.214183
