19
0 0
O	-0.265966237	 1.4065936732	 0.0661333012	-0.445484
C	-0.0709513115	-0.0013805059	 0.0560774632	 0.12045
C	 0.5085643612	-0.5839703031	 1.3779423807	-0.251033
C	-0.6889605801	-1.4367811998	 1.7877294406	-0.102992
C	-1.9300502711	-0.4357909683	 1.5090064274	-0.33205
C	-1.4698885912	-0.6709241738	 0.021649221	 0.233304
C	-1.6999820229	-1.3333332604	-1.3639760981	-0.210574
O	-0.8029654384	-2.4355834973	-0.9256634591	-0.328332
C	-1.2136431102	-2.0711140632	 0.4479900004	 0.142897
H	 0.5997370153	 1.8257345012	 0.0473290851	 0.281681
H	 0.5310422704	-0.2987181614	-0.8088485379	 0.078585
H	 1.4129627168	-1.1781092548	 1.2191556829	 0.104397
H	 0.7284784866	 0.2078628689	 2.1000093321	 0.095538
H	-0.6299373535	-2.0090284007	 2.7152245853	 0.070101
H	-2.8940064236	-0.8791293281	 1.7574981816	 0.111215
H	-1.8402227968	 0.5721110519	 1.9156397577	 0.123923
H	-2.7109810332	-1.7144097373	-1.5451970015	 0.10945
H	-1.3093089671	-0.8257146252	-2.2495105192	 0.117625
H	-2.1225952939	-2.6454509758	 0.6648137267	 0.0813
