17
0 0
C	 0.0247173044	-1.2474977555	 0.0009147707	-0.410183
C	 0.0070420744	-0.0457074129	 0.0056271232	 0.303829
C	-0.0598359843	 1.4000527761	-0.0348999717	-0.228598
C	-0.071320009	 2.0915977739	 1.3641800424	 0.05954
O	 1.368693741	 1.8113271087	 1.4447578498	-0.297082
C	 1.3251769748	 2.1181303914	 0.008559238	 0.059562
C	 1.0138918962	 3.6276020875	 0.0223510078	-0.0493
C	-0.3727594747	 4.1223661642	-0.3039669764	-0.303694
C	-0.0778705767	 3.6068602438	 1.0821683573	-0.04928
H	 0.0527050469	-2.3086976219	 0.0081807632	 0.191177
H	-0.7899868627	 1.7171998773	-0.7808522218	 0.098308
H	-0.6453110007	 1.702092208	 2.203008745	 0.091821
H	 2.1880314533	 1.7559138724	-0.5474064904	 0.091817
H	 1.8463299223	 4.3193886815	 0.0575857722	 0.102991
H	-0.4696588646	 5.2015094745	-0.3826613293	 0.114176
H	-1.0255363282	 3.5922708316	-0.9867998908	 0.121923
H	-0.0807407623	 4.2827808695	 1.9282692908	 0.102993
