17
0 0
C	-0.0614042643	 1.5620488918	 0.0069530996	-0.321548
N	 0.0395745656	 0.1210422582	 0.0647602434	-0.078308
C	-1.1962445896	-0.6562252073	 0.4469794571	-0.265948
C	-0.2428553689	-1.5926754935	 1.2084986094	 0.320435
C	 0.5171359112	-2.3315218796	 2.3406596633	-0.307829
C	 1.5275951361	-1.8459782272	 1.2116809842	 0.009176
O	 0.5944415976	-2.3505247445	 0.2190878686	-0.316918
C	 0.7745386717	-0.467547291	 1.2120683652	 0.014276
H	 0.9259905608	 1.9886381297	-0.19768816	 0.126006
H	-0.7274425156	 1.853892559	-0.8119102841	 0.123766
H	-0.4479558593	 2.0202888493	 0.9384690682	 0.086009
H	-1.8687111834	-0.0925460282	 1.1110530737	 0.099411
H	-1.7506806484	-1.086230924	-0.391173887	 0.125807
H	 0.5445790105	-1.8537850716	 3.3235916949	 0.103321
H	 0.3993439983	-3.4144928248	 2.3864513542	 0.118217
H	 2.5817244494	-2.116625428	 1.103309121	 0.093333
H	 0.8756460583	 0.1803419218	 2.0901698983	 0.070793
