19
0 0
C	-0.0566010429	 1.4537498681	 0.0805355927	-0.464129
C	 0.0326541366	-0.0420874263	-0.0546753964	 0.486761
C	 0.7362622344	-0.7066178034	-1.2461864752	-0.308189
C	 0.4174096218	-2.0997214057	-0.6870624571	 0.308196
O	 0.8730467995	-3.1795321513	-1.4513380609	-0.487192
C	 1.0260751206	-1.949599793	 0.7261326169	-0.123581
O	 0.725090645	-0.5893966845	 1.0723542774	-0.292822
C	-1.1145851185	-1.9638089415	-0.5300103936	-0.123573
O	-1.2834814697	-0.6027150255	-0.1063108803	-0.292819
H	 0.9443061883	 1.887497335	 0.131101676	 0.128057
H	-0.5932761371	 1.8772892722	-0.7709946107	 0.128059
H	-0.5960536077	 1.7046883119	 0.9971698178	 0.140014
H	 0.2549048026	-0.5007380442	-2.2039045334	 0.111458
H	 1.8050349898	-0.4904520211	-1.2942709081	 0.111456
H	 0.6193917748	-3.9973470231	-1.0093965182	 0.284143
H	 0.576278011	-2.6315881027	 1.4597871067	 0.094122
H	 2.1117293433	-2.1110019302	 0.7072823617	 0.102958
H	-1.625980263	-2.1358355171	-1.4860063338	 0.102961
H	-1.5289498689	-2.6455437776	 0.2244510885	 0.094121
