18
0 0
C	 0.0291865799	 1.4843834982	-0.1618281363	-0.389958
C	 0.0315545301	-0.009963706	 0.1982615861	 0.026318
O	 0.5793927292	-0.2171338581	 1.4886256993	-0.433409
C	-1.346808515	-0.605951194	 0.0881307742	 0.249886
N	-2.1046882564	-0.7517523874	 1.1748765352	-0.300831
N	-3.2305604377	-1.2673100863	 0.7009842303	-0.081918
N	-3.2739856631	-1.4773091157	-0.6070155866	-0.257891
C	-2.0788849812	-1.0587648113	-1.033417833	 0.237695
C	-1.6890376582	-1.114219503	-2.4742187723	-0.508324
H	 1.0410565276	 1.8857729434	-0.0615838718	 0.12587
H	-0.3128984707	 1.6474624278	-1.1894991274	 0.111892
H	-0.6343331566	 2.033962311	 0.5132200882	 0.120602
H	 0.6927280636	-0.5340116752	-0.5051479627	 0.089742
H	-0.1572300205	-0.2190697554	 2.1116714118	 0.295018
H	-3.9987690274	-1.5123362073	 1.3037147996	 0.292395
H	-1.5858108437	-0.1117025286	-2.9040780336	 0.137971
H	-0.7290673813	-1.6244894278	-2.6066517892	 0.137161
H	-2.4483169786	-1.6521429544	-3.0450865718	 0.147783
