17
0 0
N	-0.0153949155	-1.1286226532	-0.0151211939	-0.342591
C	-0.0224400918	 0.0277412975	 0.0056963084	 0.183466
C	-0.0190110165	 1.4731376509	 0.0325637902	 0.176407
C	-0.408466213	 2.2093795873	-1.300994022	-0.292992
C	 0.8165386484	 3.1108309246	-1.1042811405	-0.040262
C	 1.3555938413	 2.235062595	-0.0218787582	-0.092523
N	 0.9552064906	 3.59174344	 0.2790026687	-0.092528
C	-0.2730888891	 3.5999510331	 1.1049640222	-0.17737
C	-0.7490400851	 2.1287165775	 1.2188978638	-0.26668
H	-0.284718267	 1.5597431849	-2.169151015	 0.134079
H	-1.4014209606	 2.6689824667	-1.3282275923	 0.109181
H	 1.333297825	 3.6644935804	-1.8792908671	 0.106325
H	 2.3392947057	 1.8466066609	 0.2094526247	 0.111379
H	-0.030156389	 4.0230185973	 2.0828292779	 0.122126
H	-1.0220630237	 4.2480035259	 0.6412039851	 0.117145
H	-1.8340503614	 2.0209028794	 1.1391296349	 0.121194
H	-0.4298974684	 1.6747689416	 2.161760943	 0.123645
