19
0 0
C	 0.0647467937	 1.5084530004	-0.042161862	-0.467152
C	-0.0316330406	-0.0030824504	 0.0039432869	 0.324564
C	-0.7979429568	-0.6299753552	 1.1270719585	-0.328324
C	 0.7257134509	-0.7292749073	 1.1114866012	-0.180773
C	 1.343690619	-2.0595727366	 0.8476803611	 0.402731
O	 2.1748857905	-2.5422439602	 1.5952622957	-0.352849
C	 0.9066678891	-2.7595461314	-0.3817375266	-0.176691
C	 0.2639055176	-2.1331564927	-1.3733406651	-0.04409
C	-0.0929143589	-0.6745794655	-1.3613499848	-0.339016
H	 0.9730195492	 1.8317238885	-0.5632032839	 0.12189
H	-0.7946293413	 1.9393645702	-0.5696572855	 0.119548
H	 0.0854618253	 1.9359549066	 0.9647747635	 0.120812
H	-1.2333080397	 0.0205192845	 1.8777006754	 0.120018
H	-1.3566227843	-1.5400119106	 0.9368654687	 0.123087
H	 1.2624768885	-0.1381619494	 1.845489379	 0.099872
H	 1.1979747879	-3.802200586	-0.457895307	 0.108563
H	 0.0102384583	-2.6800859112	-2.2792097992	 0.10709
H	-1.0949978668	-0.5393469145	-1.7924393792	 0.117649
H	 0.5859070386	-0.1565363695	-2.0567275367	 0.123071
