20
0 0
C	 0.8887451037	 0.7810533361	-0.6094152543	-0.371559
C	-0.0190619829	-0.38369827	-0.2080982319	-0.14849
N	 0.5964098014	-1.2685410181	 0.7679084991	-0.330689
C	 0.1937683803	-1.3312146455	 2.0596758789	 0.444745
O	-0.7308951728	-0.6859740692	 2.5226647062	-0.389432
C	 0.9871894131	-2.2963604989	 2.9803788717	-0.302836
C	-0.0016206607	-3.2366367117	 3.703796878	-0.383169
C	 2.0589678277	-3.0324143613	 2.318461053	 0.318108
C	 2.9337237088	-3.6475176202	 1.7661120298	-0.449352
H	 1.8272112103	 0.4233191918	-1.0467851693	 0.113197
H	 0.3918725608	 1.4124851087	-1.3527759723	 0.119925
H	 1.1319169623	 1.3986554118	 0.2598813672	 0.133003
H	-0.9378571872	-0.0146932785	 0.2524424348	 0.149499
H	-0.298304666	-0.9683575206	-1.0930959892	 0.10669
H	 1.3854179391	-1.834992075	 0.4949917867	 0.252094
H	 1.4360042735	-1.6381970007	 3.7362576802	 0.137362
H	-0.7918384444	-2.6346320705	 4.1547383039	 0.14958
H	-0.4515892292	-3.9395477426	 2.997244108	 0.127001
H	 0.5130225141	-3.8092663504	 4.478687987	 0.123047
H	 3.7133168881	-4.1935113352	 1.2945818626	 0.201279
