21
0 0
C	-0.0008379335	 1.5283964027	 0.161972424	-0.408368
C	-0.1039043682	 0.0195939873	-0.0882358453	-0.224313
C	 0.7154268953	-0.4633782648	-1.2814420786	 0.340935
O	 0.2673917495	 0.0864430117	-2.5093123049	-0.491718
C	 2.2929016733	-0.4393346421	-1.1532659132	-0.314698
C	 2.2763261853	-1.9563183396	-1.3545212635	-0.046168
O	 1.4604763451	-2.506002013	-0.3040483677	-0.299539
C	 0.8106625318	-1.9998635769	-1.4783952495	 0.408366
C	-0.1329703572	-2.8733242347	-2.2349568754	-0.514817
H	 1.0355971504	 1.8390117331	 0.3343606464	 0.120664
H	-0.3910474759	 2.1086668425	-0.6826892238	 0.106198
H	-0.583184674	 1.8189645395	 1.0410521315	 0.121849
H	 0.2336749938	-0.5314554171	 0.7947117975	 0.117557
H	-1.1529669576	-0.2524533593	-0.2595831227	 0.098549
H	 0.3722451731	 1.0424822093	-2.4676094046	 0.280276
H	 2.7366193908	 0.1027312238	-1.9916211447	 0.103437
H	 2.7241827032	-0.0987504929	-0.2082821053	 0.101276
H	 3.0387321979	-2.6041517294	-1.772804766	 0.099853
H	-1.0749307456	-2.9975232305	-1.688822333	 0.127816
H	-0.3602900741	-2.4240574568	-3.2051069806	 0.144305
H	 0.3032773365	-3.8639355525	-2.3892664106	 0.128539
