18
0 0
C	-0.8143462958	 1.2800272901	-0.1024107307	-0.422653
C	-0.0062995134	-0.0093345419	-0.0991430655	 0.028304
C	 1.4042221614	-0.0387794891	-0.7787320097	-0.263962
C	 1.9755223487	-0.7453495027	 0.4686845204	 0.12631
O	 2.611814055	 0.1773933545	 1.3882188509	-0.294954
C	 1.4167972462	 0.2711310436	 2.187813855	-0.004767
C	 1.0217812869	 1.6499377366	 2.4901336261	 0.288924
N	 0.724024665	 2.7295806967	 2.7757533852	-0.329885
C	 0.6093776418	-0.6146171077	 1.2025872495	-0.137237
H	-0.2364590053	 2.134212452	 0.2559305812	 0.149402
H	-1.1460315213	 1.505979446	-1.1216975747	 0.11696
H	-1.7075395072	 1.1933496418	 0.5254978152	 0.120725
H	-0.6198555616	-0.8055690342	-0.5348259426	 0.087384
H	 1.4556407399	-0.6054259676	-1.711384447	 0.106325
H	 1.8629394825	 0.9413037954	-0.9308005404	 0.122207
H	 2.5456345846	-1.6694090483	 0.3557456897	 0.088537
H	 1.5586063904	-0.2383002163	 3.151415777	 0.128645
H	 0.0700755319	-1.4363709588	 1.6713849204	 0.089734
