14
0 0
N	-0.0746043703	 1.224461176	-0.3698437285	-0.468454
C	-0.0235454861	 0.0013778818	-0.051470659	 0.247678
N	-1.1581319584	-0.8061717624	 0.2009987965	-0.112178
C	-1.3897470483	-1.8462655405	-0.830308106	-0.247146
C	-0.6785615985	-2.2021842913	 0.418713958	-0.032597
C	 0.8392884751	-2.2594515839	 0.4176315483	-0.367719
C	 1.2559650659	-0.8223617364	 0.1084109777	 0.348486
O	 2.3661226154	-0.3785053164	-0.0162856678	-0.296968
H	 0.8891204614	 1.5617671612	-0.4731903504	 0.242662
H	-2.4322851364	-2.1159527517	-0.9637800126	 0.140059
H	-0.814939958	-1.7776015127	-1.7515702406	 0.130551
H	-1.2133774774	-2.7414758191	 1.1935000859	 0.113385
H	 1.2394380705	-2.5478206781	 1.3951427263	 0.151977
H	 1.263448375	-2.9472120263	-0.3202377878	 0.150262
