18
0 0
C	-0.0517700763	 1.5283477146	 0.022325192	-0.501382
C	 0.0291345157	 0.0287869401	 0.0183814365	 0.353554
C	-0.8514718503	-0.8628643507	 0.8449567697	-0.356394
C	 0.6380364963	-0.9450804474	 1.0383485161	-0.101058
C	 1.3333343671	-1.7445285069	-0.0943984728	-0.185914
C	 0.7087748873	-0.7809763834	-1.1332490028	-0.054839
N	 0.027696181	-1.9371862206	-1.7194370594	-0.319751
C	 0.498228679	-2.8560849804	-0.7889131532	 0.39591
O	 0.2811268613	-4.0260954069	-0.6327078753	-0.356638
H	 0.9057812603	 1.984184348	-0.2552918464	 0.11897
H	-0.8077314685	 1.8879051413	-0.6870713099	 0.120917
H	-0.3242308734	 1.9060133455	 1.0130591734	 0.122697
H	-1.3798572225	-0.3516873074	 1.6439551616	 0.113737
H	-1.4091292229	-1.6846553156	 0.4052537232	 0.124862
H	 1.1024597221	-0.7336856445	 1.99338035	 0.09438
H	 2.4083247388	-1.8852442039	-0.0086709162	 0.098717
H	 1.315785699	-0.1941842505	-1.8239863791	 0.08626
H	-0.7750171438	-2.0031023613	-2.3302236474	 0.245973
