21
0 0
O	-0.0522788017	 1.3941958273	-0.0348162708	-0.497326
C	 0.027673429	-0.0192104212	 0.0161434196	 0.413168
C	 0.6451309029	-0.5661784593	 1.3348036333	-0.26872
C	-0.053690917	-1.936263254	 1.5656425789	-0.240544
C	-1.0337353081	-2.0841577277	 0.3738773162	 0.113582
C	-1.379966939	-0.6273838188	 0.040686503	-0.243472
O	-0.435991159	-2.7084546506	-0.7637641626	-0.267655
C	 0.7976574525	-2.1280238583	-1.157574699	-0.078283
C	 0.749030127	-0.5918772153	-1.2187282254	-0.272463
H	 0.843406969	 1.7420601728	-0.1046302326	 0.270714
H	 1.735450753	-0.6516012219	 1.2766002406	 0.088278
H	 0.4130933219	 0.1422429677	 2.1346715286	 0.105375
H	 0.6383452319	-2.7809973531	 1.6121114467	 0.108582
H	-0.6190492012	-1.9337312841	 2.5017484957	 0.103157
H	-1.9002207285	-2.7046103494	 0.6110023012	 0.076781
H	-1.9762545968	-0.1676176992	 0.8362917136	 0.098101
H	-1.9117138708	-0.5259347016	-0.9080563059	 0.101639
H	 1.6008895811	-2.4408196225	-0.4720286083	 0.089829
H	 1.0306516601	-2.5519055689	-2.1386184311	 0.108702
H	 0.2158147392	-0.2558732352	-2.1143600245	 0.108821
H	 1.7759645944	-0.2061382168	-1.2788920873	 0.081733
