25
0 0
C	-0.1462220526	 1.6498867502	-0.0151755607	-0.379473
C	-0.0546376004	 0.1214472209	 0.0125188512	-0.170074
C	 0.7252077	-0.4527971647	-1.1759004799	-0.172861
C	 0.8118991385	-1.9875057715	-1.1993454987	-0.022776
C	 1.4694499147	-2.5520763613	-2.4868832736	-0.242627
C	 2.2572439795	-3.8185048149	-2.0605366781	-0.010031
C	 3.5601572366	-4.0379372211	-2.8370378032	-0.395419
C	 2.4399778625	-3.5886943023	-0.5750105821	-0.073993
C	 1.6667923191	-2.6085819758	-0.1124364624	-0.07603
H	 0.8494300958	 2.1065789549	 0.0132706555	 0.113572
H	-0.6423131375	 1.9996161962	-0.9275201723	 0.112606
H	-0.7122815697	 2.0332092407	 0.8396870694	 0.109609
H	 0.4142426859	-0.1958678499	 0.952413453	 0.097052
H	-1.0662765036	-0.3061009794	 0.0198772741	 0.093263
H	 0.2506051817	-0.114830251	-2.1077691016	 0.089018
H	 1.7428081456	-0.0378419798	-1.1843264076	 0.0901
H	-0.2156075692	-2.3763147393	-1.1065961207	 0.071039
H	 0.7444340414	-2.747923804	-3.2821388001	 0.090758
H	 2.1798301314	-1.8096172322	-2.8728730504	 0.094223
H	 1.628342139	-4.7115689235	-2.2038795345	 0.075026
H	 4.2349486853	-3.1832843356	-2.7154091188	 0.113765
H	 4.0863973779	-4.9331290195	-2.4880436572	 0.109426
H	 3.3653847563	-4.1635872684	-3.9076224027	 0.111238
H	 3.1093981712	-4.1968611174	 0.0256973412	 0.084465
H	 1.6078647604	-2.3003938216	 0.9260621904	 0.088124
