22
0 0
C	 0.0000904265	 1.2698923223	-0.2888217888	-0.387374
C	 0.0654443359	-0.1919093415	 0.1183375071	-0.046107
O	-1.1909103614	-0.7931713538	-0.1690567008	-0.27559
C	-1.2843221018	-2.185958127	 0.1294272761	 0.043289
C	-1.6980286597	-2.3680826026	 1.5971774847	-0.062869
O	-2.8750653773	-1.6501349599	 1.9005112462	-0.418419
C	-2.2759697032	-2.8147617664	-0.8326779303	 0.026055
C	-3.4298628134	-2.0594722174	-1.3675060257	-0.223429
N	-2.2966249153	-2.4166310807	-2.2459203608	-0.338044
H	 0.9573751136	 1.7606487815	-0.0904478804	 0.122707
H	-0.2235644346	 1.3634209046	-1.3553196173	 0.129779
H	-0.7790082801	 1.794176425	 0.2720989628	 0.126861
H	 0.859458916	-0.7156908065	-0.4359803502	 0.099875
H	 0.3017170573	-0.2815188686	 1.1889638076	 0.100045
H	-0.3003986618	-2.6597521555	-0.0223831618	 0.073705
H	-1.8978092207	-3.4265752647	 1.7975515139	 0.110162
H	-0.863604209	-2.0659438953	 2.2517243845	 0.082917
H	-2.7634191784	-0.7815785339	 1.4951002118	 0.285508
H	-2.3866601626	-3.8862855672	-0.6763134217	 0.091525
H	-4.3608799593	-2.5759206507	-1.5812107892	 0.115312
H	-3.5358724291	-1.0212125132	-1.0725114591	 0.115061
H	-1.7099699319	-1.5892553284	-2.3416101986	 0.229028
