22
0 0
C	 0.6958616752	-0.0113695828	-1.3466131854	-0.452165
C	 0.0887484883	 0.0512799995	 0.0444419887	 0.347731
C	 0.9649339428	-0.3463346902	 1.2094775793	-0.309222
C	 0.6178130175	 1.1058171643	 0.9926989855	-0.302415
C	-1.356944044	-0.3980825372	 0.0720800301	-0.007038
C	-2.3010207261	-0.1529634772	 1.286198766	-0.300654
C	-3.2212999757	 0.5612479573	 0.300651806	-0.012635
C	-2.5229169957	 1.6643206728	-0.3833368114	-0.241311
N	-2.3144881431	 0.2914396467	-0.8865081599	-0.147753
H	 1.74706929	 0.2926101068	-1.3323824595	 0.106574
H	 0.6464370009	-1.0295099753	-1.7504405966	 0.115415
H	 0.1582486758	 0.6431089423	-2.0396264388	 0.134211
H	 0.5018340229	-0.8528440623	 2.0504668843	 0.110724
H	 1.9765104644	-0.6756737532	 0.9964778838	 0.110052
H	 1.3917782108	 1.768808168	 0.6200203171	 0.109996
H	-0.0513846154	 1.574170812	 1.7050610789	 0.110389
H	-1.3786066993	-1.4570743162	-0.2071410185	 0.084974
H	-2.7144525371	-1.0806882961	 1.6854410089	 0.109763
H	-1.9362489399	 0.4500230887	 2.123157942	 0.103424
H	-4.295246608	 0.4201135651	 0.2324044876	 0.09238
H	-3.0998451979	 2.2695088582	-1.0761403996	 0.117336
H	-1.7102489363	 2.1902200888	 0.1074712814	 0.120223
