14
0 0
O	 0.2222833604	 1.3403055253	-0.3734720609	-0.46984
C	 0.0072252999	 0.0102366766	-0.075785473	 0.307581
C	-0.4932221432	-0.9613520713	-1.1438009271	-0.37226
C	-1.326935282	-0.6889902264	 0.072147502	 0.037089
O	-1.2755577881	-1.6506272173	 1.1040681547	-0.25951
C	 0.0591044026	-1.7620265351	 1.5851837116	-0.194335
C	 0.8337839841	-0.5778500576	 1.0092557877	 0.307498
O	 1.8648689118	-0.0966679858	 1.4168003649	-0.338327
H	 1.0588607454	 1.5688414575	 0.0595311258	 0.299187
H	-0.799024025	-0.4607067243	-2.0564822481	 0.142297
H	-0.0255477117	-1.9315273529	-1.2766411337	 0.127753
H	-2.2811561952	-0.1808700289	 0.0057893152	 0.128776
H	 0.0603026369	-1.7186710131	 2.6786563407	 0.149427
H	 0.5194819542	-2.7131677967	 1.28121086	 0.134665
