17
0 0
O	-0.569640199	 0.7471574792	-0.6150971088	-0.24103
C	 0.1555549023	 1.0403357016	 0.3010674114	 0.139772
C	 1.3482943746	 1.9700009327	 0.2027323693	-0.047884
C	 1.4040820723	 2.8915497021	-1.0562682532	-0.250164
C	 1.4309317272	 4.2330984928	-0.2985293279	-0.022731
C	 2.4116418189	 3.9019344258	 0.8547717499	-0.171764
N	 1.3401230542	 2.9414512987	 1.3445363432	-0.144597
C	 0.3645548604	 3.9745646703	 0.7924905232	-0.187345
H	-0.001177189	 0.629868986	 1.3228553972	 0.093128
H	 2.2392407027	 1.3361182092	 0.3050993557	 0.10046
H	 2.2982102916	 2.7274982031	-1.6627802258	 0.101577
H	 0.523851516	 2.7631850853	-1.690114704	 0.126547
H	 1.4774571859	 5.1514238813	-0.8858785427	 0.067512
H	 3.3755371932	 3.4392845911	 0.6212826902	 0.100346
H	 2.543529483	 4.7086528353	 1.579182257	 0.110661
H	 0.2491031049	 4.7880162201	 1.5113093837	 0.111866
H	-0.6155192692	 3.5863574955	 0.4997918716	 0.113648
