19
0 0
C	 0.2072583165	 1.2062012651	-0.9342607605	-0.427378
C	 0.5661222048	-0.2536371993	-0.6892326279	-0.030785
C	 1.8851359909	-0.8881667821	-1.2605689798	-0.268758
C	 2.2047507796	-1.4416639738	 0.1380851983	-0.141708
C	 2.3892303096	-0.3201708305	 1.1561658693	-0.165682
C	 3.0737262115	 0.9704621341	 0.9141238619	 0.133687
O	 3.5828731977	 1.6258095187	 1.7947189896	-0.275217
C	 0.9870283005	-0.7544517356	 0.7008398767	 0.359354
O	 0.1035731474	-1.2595541221	 1.632463008	-0.452888
H	 1.0061473649	 1.8912094071	-0.6370646723	 0.122791
H	-0.0009107324	 1.3808742699	-1.9953285512	 0.122472
H	-0.6931526143	 1.4834365589	-0.3744914748	 0.118249
H	-0.2739451284	-0.8836778013	-1.0006041565	 0.094121
H	 1.6875015223	-1.6765256758	-1.9892285682	 0.114192
H	 2.6141386035	-0.1991847702	-1.6933908514	 0.109325
H	 2.5945418126	-2.4287894244	 0.3535055959	 0.107312
H	 2.5712744287	-0.6917688062	 2.1613312002	 0.113622
H	 3.1182077304	 1.3175638707	-0.1391681955	 0.073528
H	-0.2098768658	-0.5366964832	 2.187605228	 0.293763
