17
0 0
C	-0.062923247	 1.4380501715	 0.0621390198	-0.149889
O	 1.3919747212	 1.4359974684	-0.1048277914	-0.31262
C	 1.3343049573	 0.1566092842	-0.8066800344	 0.123437
C	 2.2008596552	-1.057255669	-0.4443123781	 0.017149
C	 1.912375983	-1.6787824497	 0.937235985	-0.240143
C	 0.6751467109	-2.2557481341	 0.1852315046	 0.059745
O	 1.4160714096	-2.1299196066	-1.0650488021	-0.289648
C	-0.4132276321	-1.1933441124	 0.290016796	-0.210071
C	-0.0494010786	-0.0369936373	-0.2486971543	 0.19098
H	-0.3699816497	 1.7428417773	 1.0679511452	 0.119537
H	-0.5400089783	 2.0878192196	-0.6839615801	 0.109799
H	 1.4018953792	 0.3185453277	-1.8908302704	 0.090778
H	 3.2325782978	-1.016584158	-0.8001070158	 0.082416
H	 2.6490956411	-2.4489556208	 1.1723095338	 0.113106
H	 1.7430595141	-1.021919297	 1.7912193948	 0.112038
H	 0.3484454498	-3.2803431871	 0.3699226078	 0.08478
H	-1.2499747734	-1.3311672267	 0.9673524997	 0.098605
