18
0 0
O	-0.0568444061	-0.0351152984	-0.3398353146	-0.392779
C	 0.003514066	 1.1606620308	-0.1431941575	 0.439868
N	-1.060538384	 1.9923098702	 0.1531719618	-0.348915
C	-0.6811493251	 3.3768736113	 0.2810156298	-0.26348
C	 0.8233176258	 3.3270992089	 0.0780990075	 0.362035
C	 1.1887678497	 2.0589980983	-0.159743165	-0.36635
C	 1.6930156094	 4.5100164896	 0.1435300019	-0.087919
C	 1.2271817025	 5.8761909873	-0.3368943324	-0.269706
C	 1.4352313675	 5.6417797375	 1.1275016669	-0.269321
H	-2.0089548174	 1.6594448758	 0.1538086413	 0.251126
H	-1.1647458027	 4.0134593645	-0.4746054006	 0.123339
H	-0.9420275371	 3.7894678356	 1.2663557584	 0.123483
H	 2.1864696358	 1.6878397257	-0.347164014	 0.112529
H	 2.7388566525	 4.2859796726	-0.0396913153	 0.094975
H	 1.9465032	 6.4820795346	-0.8758826936	 0.124804
H	 0.2103727309	 5.9646551869	-0.7024973851	 0.120424
H	 0.5612420179	 5.5694748931	 1.7648116823	 0.120865
H	 2.3002031843	 6.0834071158	 1.6089841182	 0.12502
