15
0 0
C	-0.02033092	 1.5637746428	 0.0208265202	-0.50083
C	-0.0004834835	 0.0605115336	 0.0117019333	-0.02762
C	-0.0739383898	-0.667978418	-1.1167967924	 0.353778
F	-0.1702231617	-0.1483245475	-2.3245275894	-0.041736
O	-0.0614560874	-1.9972572964	-1.1934901629	-0.251912
C	 0.03525102	-2.8057180859	-0.0356377635	 0.390564
N	 0.0443489063	-4.0674210091	-0.1475075253	-0.533512
C	 0.1168951041	-2.0703664526	 1.2063560385	-0.169226
C	 0.0995342157	-0.7206562092	 1.2212024185	-0.104311
H	 0.8923523174	 1.9690111217	 0.4725179028	 0.1357
H	-0.1005490852	 1.9626945838	-0.991696407	 0.141494
H	-0.8674538689	 1.944967347	 0.6024700612	 0.135701
H	-0.0237687119	-4.3550066843	-1.1230544485	 0.227148
H	 0.1914878992	-2.6663318627	 2.1057363598	 0.127135
H	 0.1620271356	-0.1884271132	 2.1656435248	 0.117628
