16
0 0
O	 0.2108021072	 1.360440807	 0.1289232545	-0.403474
C	 0.0437539622	-0.0311754688	-0.0774019611	-0.205035
C	-1.3893037107	-0.4465189811	-0.0557538558	 0.313632
C	-2.3992830907	-0.7394478663	 0.9947063513	-0.091627
N	-3.4040832516	 0.148680089	 0.395760715	-0.309244
C	-2.6597211896	-0.0122276194	-0.8906869268	-0.20531
C	-2.7520503423	-1.5164430809	-1.254158338	 0.44165
O	-3.0503323853	-2.1167255797	-2.2477185961	-0.335507
C	-2.0329166866	-1.8696959971	 0.0132385168	-0.278735
H	-0.2444125888	 1.5940271228	 0.9450201786	 0.289891
H	 0.4860608657	-0.2411957814	-1.0570874646	 0.129848
H	 0.5997411669	-0.6283197963	 0.6636820744	 0.099073
H	-2.2805045068	-0.8701981792	 2.0644137585	 0.111563
H	-4.3449589215	-0.2513380344	 0.3593480182	 0.219959
H	-2.7371100832	 0.7757187779	-1.6353759688	 0.106109
H	-1.5655406649	-2.7973702621	 0.3134674938	 0.117206
