21
0 0
C	-0.6165767259	 1.1612026062	 0.066783039	-0.421283
C	-0.0513447406	-0.2506724541	 0.0580417313	-0.125611
C	 0.7995963153	-0.7374814889	-1.139138242	 0.363609
C	 0.3317618722	-1.2488163061	-2.4647809897	-0.331683
C	 1.1074612585	 0.0484608323	-2.3804199688	-0.317835
C	 1.8465305668	-1.357420555	-0.1970216917	-0.405111
C	 1.1659594043	-0.5834936418	 0.9374030847	 0.452547
C	 1.7818322205	 0.2145916808	 1.9982182775	-0.26427
O	 1.0954818976	-1.0149579244	 2.2824735327	-0.277633
H	 0.1645118581	 1.9047565028	-0.1217727096	 0.116695
H	-1.3893960009	 1.2832972429	-0.7004798732	 0.11575
H	-1.0781586481	 1.3900328494	 1.0333495847	 0.122238
H	-0.8481859818	-0.9751498216	 0.2703525414	 0.08495
H	 0.8284292538	-2.118497617	-2.8836533393	 0.11151
H	-0.7289057087	-1.1919112832	-2.6909124834	 0.110595
H	 0.5685670853	 0.9742162128	-2.555153735	 0.112201
H	 2.1323156558	 0.0572564826	-2.7386174544	 0.110277
H	 1.7310303307	-2.4397491985	-0.0759089729	 0.113073
H	 2.8980925557	-1.1305456327	-0.3939341897	 0.104522
H	 2.8625424394	 0.1883527108	 2.1353847811	 0.111935
H	 1.2905306922	 1.1159589827	 2.3624179671	 0.113526
