23
0 0
C	-0.2389942613	 1.5597108915	-0.0268280598	-0.395152
C	-0.1044602407	 0.0384234352	-0.1454320153	-0.164276
C	 0.9296512358	-0.4379590705	-1.1865255826	 0.009
C	 2.3637711994	-0.0209655338	-0.8293271646	-0.398494
C	 0.8307533133	-1.9493962275	-1.3368015648	 0.015506
C	-0.1542025364	-2.5980674746	-2.2467838521	-0.317601
C	 1.3350251529	-2.7135031213	-2.565321797	-0.122
C	 1.8604301609	-2.0084015454	-3.7536688045	 0.164348
O	 2.7873836018	-2.3969301596	-4.4230586839	-0.276312
H	 0.6824976487	 2.0276526376	 0.3319704335	 0.121013
H	-0.4864701023	 2.0114426726	-0.9942445581	 0.114482
H	-1.0352397757	 1.8254885071	 0.6753355003	 0.114833
H	 0.1569003196	-0.3854904262	 0.834173695	 0.093411
H	-1.0803421747	-0.3876332755	-0.4088720354	 0.097711
H	 0.6644552428	 0.0279755315	-2.1451672795	 0.071414
H	 3.07582173	-0.3705866569	-1.583127197	 0.126794
H	 2.4637801268	 1.0653492011	-0.7567755862	 0.118078
H	 2.6640709212	-0.4495876866	 0.1344149538	 0.11344
H	 1.0320712082	-2.4832944471	-0.4096883613	 0.095517
H	-0.6664357248	-3.5023923602	-1.9391181341	 0.126192
H	-0.7375732218	-1.9530228011	-2.8981974424	 0.121474
H	 1.8193863803	-3.6665567399	-2.3822643452	 0.104811
H	 1.3217257359	-1.0693597806	-4.0188860188	 0.065813
