17
0 0
O	-0.136240401	-0.1288230624	-0.1738650936	-0.229348
C	 0.065415904	 1.0324595849	 0.0657870143	 0.157662
C	 1.3496664533	 1.7686150265	-0.2491914564	-0.274865
C	 1.0952655154	 3.0511933044	-1.0496036103	-0.162229
N	 2.3337726887	 3.8255260848	-1.1361229766	-0.075271
C	 3.205924462	 3.5653559714	-2.2660149333	-0.23971
C	 2.4417624443	 4.8542794492	-2.179503869	-0.148041
C	 1.3602167856	 5.0898782208	-3.1057536375	 0.285118
N	 0.4825413846	 5.3016251628	-3.8289969428	-0.330709
H	-0.7124894262	 1.6588427818	 0.5627400381	 0.077922
H	 1.8196662798	 2.0488665604	 0.7036646305	 0.137225
H	 2.0241768528	 1.0892340323	-0.7774106878	 0.126591
H	 0.68365336	 2.804280484	-2.0406564632	 0.125549
H	 0.3523774667	 3.6731668596	-0.5371073485	 0.12583
H	 4.2729724974	 3.5717674946	-2.0651129573	 0.139441
H	 2.8751283526	 2.8540661456	-3.0208237122	 0.139906
H	 2.95466865	 5.7593309495	-1.8668647744	 0.144928
