14
0 0
C	-0.0315611881	 1.4857038938	-0.014828433	-0.458577
C	-0.0080959793	-0.0099556171	-0.0105407583	 0.216344
N	-0.0404391141	-0.6549507914	-1.1276128046	-0.210369
N	-0.0178989023	-2.0062849585	-1.092876807	-0.306906
C	 0.0373397174	-2.8215507995	 0.0246468928	 0.505794
O	 0.0541990419	-4.0288510557	-0.0262161002	-0.375981
N	 0.0703521535	-2.0844154894	 1.2002429424	-0.428987
C	 0.0523821468	-0.6973551654	 1.3046810282	 0.394598
O	 0.0843355745	-0.1279834074	 2.373999613	-0.3445
H	 0.8595609956	 1.883739908	 0.4812009137	 0.150837
H	-0.0778549653	 1.8549695454	-1.0398026479	 0.14116
H	-0.8925147235	 1.8564094156	 0.5507256582	 0.150866
H	-0.0449459074	-2.4655219447	-1.9900099853	 0.287094
H	 0.1113033403	-2.6155162337	 2.0607954882	 0.278626
