19
0 0
C	-0.0131134211	 1.4935874149	-0.0210766023	-0.506524
C	-0.0020514505	-0.0102295075	 0.0098390586	 0.288463
C	-0.251602865	-0.9188299304	-1.145181804	 0.054586
O	 0.7214222623	-1.9257812142	-1.2255145825	-0.258347
C	 1.773393051	-1.5677894559	-0.3179699515	-0.070958
C	 1.0531438919	-0.8180530789	 0.8230074956	-0.165515
C	 0.2292923899	-1.823536262	 1.6093434279	-0.09153
C	-1.0144012543	-1.8980620552	 1.1320181444	-0.054511
C	-1.2353386364	-0.9053903947	 0.0445454005	-0.183056
H	 0.9497993742	 1.8931619811	-0.3614706293	 0.117928
H	-0.7841479822	 1.865746354	-0.7034451239	 0.118515
H	-0.2177802554	 1.9128668593	 0.9707511376	 0.122129
H	-0.6001961299	-0.5622530336	-2.110323346	 0.094357
H	 2.2693622494	-2.4901294801	-0.003288684	 0.107698
H	 2.510143288	-0.9180196224	-0.8184637455	 0.085763
H	 1.7326783883	-0.2014939381	 1.4187577665	 0.07089
H	 0.6648249237	-2.4784284113	 2.3553305056	 0.093579
H	-1.7744534727	-2.6020744456	 1.449702012	 0.097677
H	-2.2237689015	-0.4988195492	-0.1474702898	 0.078855
