19
0 0
C	 0.0079090187	 1.5104198916	 0.0930820501	-0.502692
C	-0.0389048423	 0.0174503871	-0.027494173	 0.350109
C	 0.2874296241	-0.7994419968	-1.3142222824	-0.285582
C	-0.4003166044	-1.9429502977	-0.4974072357	-0.182018
C	 0.558598162	-2.0361831962	 0.6966242164	-0.078517
O	 0.7767623816	-0.6302223784	 0.9726743006	-0.315072
C	-1.3256834444	-0.8291190119	 0.0281485135	 0.489046
C	-2.5479034724	-0.7749789431	 0.8137050614	-0.310324
O	-2.5292873342	-0.4491346828	-0.5985233505	-0.303058
H	 1.0120410068	 1.8873210993	-0.1221981217	 0.129362
H	-0.6976008778	 1.9639498386	-0.608330198	 0.133594
H	-0.2604222576	 1.8186466602	 1.1083851801	 0.128523
H	-0.3026909924	-0.4890146343	-2.1775491749	 0.120857
H	 1.3441977354	-0.9144288205	-1.5669747639	 0.097931
H	-0.7724055494	-2.8625275678	-0.9448808811	 0.083091
H	 0.1169052762	-2.5264945522	 1.5721289422	 0.101579
H	 1.5108608127	-2.5236898879	 0.4564867733	 0.10212
H	-3.079040591	-1.6918535241	 1.0650918669	 0.119072
H	-2.7338255913	 0.067337327	 1.4779987167	 0.121979
