22
0 0
C	 0.1018136926	 0.8297465649	-1.3702529807	-0.39243
C	 0.010633302	 0.0180938225	-0.0743185704	-0.021414
O	-1.3382332042	-0.339314289	 0.120148854	-0.282499
C	-1.8498094925	-0.4716711004	 1.4709644505	 0.353391
C	-1.8995370036	 0.9058783257	 2.1486042493	-0.410295
C	-3.2672376964	-1.0055561966	 1.2491723464	-0.400446
C	-1.0266706856	-1.4670637501	 2.2983862053	-0.416841
C	 0.8773910462	-1.182937818	-0.1663057933	 0.279223
N	 1.5564650637	-2.1140117715	-0.2533362475	-0.332896
H	 1.1395537224	 1.0907669204	-1.592863977	 0.13463
H	-0.3035061943	 0.2482249513	-2.2013607099	 0.148002
H	-0.4860688835	 1.743651918	-1.2599270624	 0.130211
H	 0.3924564507	 0.6259217628	 0.7564304947	 0.114857
H	-2.4571733183	 1.6142856659	 1.5294409027	 0.122348
H	-2.3967998746	 0.8312073513	 3.1203947501	 0.12156
H	-0.9005609795	 1.3150413589	 2.3302121192	 0.113698
H	-3.2325754187	-1.9743834527	 0.74407944	 0.126411
H	-3.7866133412	-1.1266793703	 2.2039884837	 0.114025
H	-3.840392071	-0.3143208509	 0.6252472507	 0.12125
H	-0.0107746088	-1.107509325	 2.4878723261	 0.119765
H	-1.5041932145	-1.6221975817	 3.2707142661	 0.116973
H	-0.9572552009	-2.4318846555	 1.7898577023	 0.140477
