21
0 0
C	-0.5061288591	 1.3918701432	-0.1143457042	-0.413897
C	-0.1034866132	-0.077820411	-0.0458435434	-0.020876
C	 1.1442017896	-0.475907758	-0.8871521421	-0.29158
C	 2.0082375132	-0.5857416458	 0.43022848	 0.176504
C	 2.8564040736	-1.847763619	 0.5846941056	-0.480208
C	 2.8878775971	 0.632106618	 0.5341943872	 0.132873
O	 2.6364342838	 1.6548592344	 1.1335963747	-0.281885
C	 0.6708655546	-0.510517909	 1.2457729069	 0.104287
O	 0.6060355587	 0.2652778759	 2.4048454034	-0.43444
H	 0.3453444519	 2.0605132657	 0.0392122148	 0.129644
H	-0.9435425471	 1.624611703	-1.0910452945	 0.110361
H	-1.2496171972	 1.6203701722	 0.6550860022	 0.128063
H	-0.9814125194	-0.6998522742	-0.2439399391	 0.071884
H	 1.0586411145	-1.4462193273	-1.3827909438	 0.107255
H	 1.4788810614	 0.258181423	-1.6263319132	 0.106882
H	 3.7041709989	-1.8522511724	-0.1106398714	 0.120507
H	 3.2535674144	-1.9357178082	 1.6018816369	 0.135324
H	 2.2547096631	-2.738216151	 0.3805303982	 0.125699
H	 3.8435122143	 0.5473325082	-0.0326942494	 0.092678
H	 0.3734959847	-1.5238939333	 1.5366728077	 0.082492
H	 1.1065733222	 1.0750733252	 2.2286912435	 0.298431
