19
0 0
C	-0.1005044797	 1.4931913545	-0.0208451783	-0.331292
N	 0.0765783028	 0.0533145649	 0.0190521735	-0.051959
C	 0.7724953744	-0.5505012866	-1.0944817824	-0.00347
C	 1.0820320032	-1.9782607095	-0.795864315	-0.130399
C	 2.2372183916	-0.9936709284	-0.9456433892	-0.060871
N	 2.652137009	-1.1510829919	 0.475399929	-0.140245
C	 2.2036000728	-0.0126259024	 1.3455675785	-0.184909
C	 0.7287997743	-0.4862064058	 1.2109764237	-0.047875
C	 1.3320288562	-1.8571198312	 0.7123516994	-0.007823
H	 0.8373076424	 2.0755261176	-0.0146667896	 0.098621
H	-0.6547384856	 1.7640205622	-0.9252745627	 0.119936
H	-0.6976028095	 1.8077459935	 0.8415128108	 0.119698
H	 0.438501262	-0.2617455777	-2.0852949592	 0.093056
H	 0.7814417381	-2.8456540423	-1.3660860761	 0.093858
H	 2.9781801429	-0.8876591406	-1.7319049307	 0.086512
H	 2.6149614841	-0.1448675474	 2.3515339346	 0.101952
H	 2.458629819	 0.9869603469	 0.983487121	 0.10212
H	 0.0740190507	-0.4353925303	 2.086354395	 0.067432
H	 1.3311376213	-2.7211286655	 1.3755178478	 0.075658
