17
0 0
C	 0.0864573205	 1.3429786372	-0.1423871558	-0.26111
O	-0.1430219991	-0.0338418764	 0.1273691323	-0.284336
C	 0.5829572099	-0.5083045897	 1.1862768366	 0.408268
C	 2.0681708455	-0.8172469803	 1.1968698461	-0.02108
O	 2.7000335415	-0.3826006709	 2.3684366166	-0.226304
C	 1.6649545673	-0.5334747047	 3.3017317947	 0.077556
C	 0.7654964731	-1.7116748524	 2.9709213735	-0.121925
C	 0.2989632109	-0.2830782324	 2.6980472319	-0.228132
C	 1.0428455972	-1.9237014419	 1.470642768	-0.219381
H	 1.1430521997	 1.5338661488	-0.3724401729	 0.117383
H	-0.5273363595	 1.6020575823	-1.0074033923	 0.129538
H	-0.2065653886	 1.9746121665	 0.7071901148	 0.116959
H	 2.6799298157	-0.8022863006	 0.3052849401	 0.112233
H	 1.9315479581	-0.2534270299	 4.312063061	 0.109315
H	 0.4098375379	-2.443098285	 3.6822380667	 0.094801
H	-0.4992566042	 0.2962607061	 3.1401599179	 0.095929
H	 0.9583718343	-2.8362116967	 0.8985171907	 0.100286
