15
0 0
C	-0.0455980575	-1.2103408185	 0.0209190783	-0.429154
C	-0.0081581523	-0.011331101	 0.0846519694	 0.299454
C	 0.0510401682	 1.4429347231	 0.1427908771	-0.370428
C	 1.4535351185	 2.0144442606	-0.1054285486	 0.096404
C	 1.5254189343	 3.5636598696	-0.0151080545	-0.203359
N	 2.3811340167	 3.8433160834	 1.1507220298	-0.260021
C	 2.7577586294	 2.7107984195	 1.5741372819	 0.122114
O	 2.3483135826	 1.5794171352	 0.9524142049	-0.221279
H	-0.0810228211	-2.27049157	-0.0267177846	 0.198849
H	-0.6243692182	 1.8728733483	-0.6088736937	 0.137049
H	-0.3019429635	 1.8002211079	 1.1186186556	 0.141638
H	 1.8530857607	 1.6216056093	-1.0436975177	 0.10716
H	 1.9613782689	 4.0152461634	-0.9119148815	 0.121061
H	 0.5369314911	 4.0150994547	 0.128790764	 0.116752
H	 3.4087778823	 2.5414430545	 2.4246243697	 0.143762
