19
0 0
C	-0.0006280436	 1.5847915476	-0.0272442316	-0.448414
C	-0.0037890872	 0.0562491323	-0.0614715967	 0.187684
C	-1.3991723794	-0.4940518549	 0.2557820958	-0.431846
C	 0.6592821532	-0.6477196828	-1.2639842478	-0.171291
C	 2.0915925513	-0.2527219941	-1.4221129726	-0.34779
C	 1.8175296244	-1.2416870236	-0.3309711266	 0.331022
O	 2.4843619993	-2.435219862	-0.302516337	-0.446637
C	 1.0507845678	-0.6926904772	 0.8141232086	 0.275121
O	 1.0165969732	-1.06002847	 1.9630377006	-0.351976
H	 0.9814064605	 2.0113978267	-0.2466618663	 0.117011
H	-0.7122979463	 1.9892043721	-0.7556930569	 0.118283
H	-0.2994090663	 1.9384774297	 0.9649099215	 0.130978
H	-2.1388417762	-0.0928463561	-0.4452540476	 0.114789
H	-1.4243663342	-1.5863360092	 0.1913884805	 0.116351
H	-1.6970553976	-0.2130863243	 1.2696364883	 0.135375
H	 0.116491341	-1.1941644254	-2.0248218055	 0.11114
H	 2.6030011561	-0.7193799738	-2.2596933003	 0.136172
H	 2.4371310998	 0.7539514723	-1.2055857569	 0.122608
H	 2.1209735045	-2.9449273275	 0.4337954805	 0.30142
