17
0 0
N	 0.0189452444	 1.3564120967	-0.010043557	-0.589593
C	 0.0416835416	-0.0355783211	 0.0016687452	 0.297987
N	-1.0799848959	-0.7470745803	-0.0198055643	-0.307501
N	-0.6511378585	-2.0344088673	-0.0846433659	-0.194887
C	 0.693871686	-2.1434356758	-0.093461915	-0.119168
C	 1.2035731589	-0.8598546785	-0.031188602	 0.144151
C	 2.6179526548	-0.4231237002	-0.0458797888	-0.144319
C	 3.2526997357	 0.1481151999	 1.1781690052	-0.23869
N	 3.6489354313	-1.1826596661	 0.6871419954	-0.317817
H	 0.7760532308	 1.7702794105	 0.5170468604	 0.24724
H	-0.8760416892	 1.7257863258	 0.28294655	 0.25065
H	-1.3329590433	-2.7712234049	-0.1096111176	 0.273095
H	 1.1896357363	-3.1003434907	-0.1503744919	 0.135581
H	 2.9850237939	-0.0471503551	-1.0001179543	 0.106516
H	 4.0167242262	 0.9149757059	 1.0869127531	 0.118617
H	 2.6491216625	 0.2051462109	 2.0803647763	 0.110193
H	 3.1885195746	-1.8881363096	 1.2581387313	 0.227946
