18
0 0
O	-0.1809363142	 1.366135548	-0.3196255721	-0.480043
C	-0.0451464771	-0.0237571028	-0.1029895159	 0.375013
C	 0.9115693968	-0.6614483338	-1.0859322392	-0.046111
C	 0.8988640167	-0.2381326471	-2.5075528358	-0.243669
N	 2.0388832245	 0.1109822422	-1.6381933178	-0.333501
C	-0.0386467007	-0.5560903229	 1.3724716736	-0.027986
C	-1.4967355197	-0.069856107	 1.5538569405	-0.237025
C	-1.3736461149	-0.7868452518	 0.190317254	 0.023239
O	-0.5607093015	-1.8368114775	 0.8528653475	-0.308327
H	 0.4767175482	 1.8271007467	 0.2106303873	 0.292764
H	 1.1532560221	-1.691448909	-0.8545843583	 0.113018
H	 1.1167259493	-0.9622659929	-3.2870149749	 0.117619
H	 0.2160739118	 0.5580064326	-2.7894860912	 0.120264
H	 1.9270084317	 1.0878532431	-1.3734369445	 0.213627
H	 0.7825195254	-0.60391365	 2.0898011447	 0.097216
H	-2.0613641915	-0.6242430022	 2.3033120974	 0.111997
H	-1.6960392598	 1.001071902	 1.5545402071	 0.110761
H	-2.1465058071	-1.1128632477	-0.5056292023	 0.101144
