14
0 0
C	-0.0242071503	 1.5427749757	 0.0995461439	-0.514231
C	 0.0072978599	 0.0620574631	-0.0772286065	 0.168452
C	-0.0044297399	-0.7839802039	-1.1598484988	 0.2285
O	-0.0452962957	-0.8346241163	-2.5249966808	-0.229546
C	-0.0179454723	-2.1979965591	-2.7617354021	 0.050538
N	 0.033756176	-2.985244788	-1.7415633778	-0.326143
C	 0.0440555238	-2.0932544747	-0.671059494	 0.329628
N	 0.0862666418	-2.1465206317	 0.6551209683	-0.333035
N	 0.0623790296	-0.8255769401	 0.9760312703	-0.241159
H	 0.8738463837	 1.9116023438	 0.6078997674	 0.143212
H	-0.0784082685	 2.0302590844	-0.8757882851	 0.152275
H	-0.8943245519	 1.8646353821	 0.6827653931	 0.142884
H	-0.0431010312	-2.4756818373	-3.8047204484	 0.153043
H	 0.0857762351	-0.5777235983	 1.9513333006	 0.27558
