14
0 0
N	 0.0738923313	 1.38280817	 0.1684802165	-0.578233
C	-0.0349130997	 0.013301031	 0.0522262588	 0.462857
C	-1.20802932	-0.6741017657	 0.0315482848	-0.357593
C	-1.2160787863	-2.1171625787	-0.0138886603	 0.450417
O	-2.1935850238	-2.8387325167	-0.0346562346	-0.384838
N	 0.078065886	-2.6947682428	-0.0507083585	-0.433208
C	 1.2902919539	-2.0502148235	-0.0196838699	 0.488136
O	 2.3708497058	-2.5969986268	-0.0146041106	-0.391749
N	 1.1667131862	-0.6595342712	 0.0079554863	-0.435166
H	 0.8406342464	 1.8126271953	-0.3299370562	 0.261666
H	-0.7930072603	 1.8835117232	 0.0426378556	 0.271444
H	-2.159953629	-0.1633465992	 0.0350870298	 0.107362
H	 0.1125072485	-3.704314771	-0.0763954588	 0.271034
H	 2.0372007509	-0.1694015938	 0.1455061871	 0.267871
