15
0 0
C	-0.0081752683	 1.4801110429	 0.0992620119	-0.319345
C	 1.2927520659	 0.7393632864	 0.0158161898	 0.093247
O	 2.0198396969	 0.4517479449	 1.2043897187	-0.275593
C	 1.2049573079	-0.3791398664	 1.929169036	 0.267577
C	 0.0521901573	-0.7344483928	 1.275767286	 0.31458
N	-0.6068864504	-1.5711541537	 2.1113423094	-0.335781
N	 0.0712989616	-1.774052177	 3.2647789772	-0.226302
C	 1.1859952722	-1.0339711128	 3.16862575	-0.148398
C	-0.0346105831	-0.0435174202	-0.0227545809	-0.235997
H	-0.3088535578	 1.9182586826	 1.0440729853	 0.133725
H	-0.2827199564	 2.0495238369	-0.7824311092	 0.122188
H	 1.9454881825	 0.8622394987	-0.839131284	 0.113252
H	-1.4865405471	-2.0397602406	 1.9821704722	 0.27343
H	 1.898820625	-1.0275514565	 3.9777136751	 0.117763
H	-0.4164816661	-0.5192814922	-0.9185052177	 0.105655
