15
0 0
N	-0.0806454162	 1.2827940096	-0.559163219	-0.601915
C	-0.0552505196	-0.0493555528	-0.1761352086	 0.199571
C	-1.0707772109	-0.9429525273	-0.0037487236	 0.276981
C	-2.5554285277	-0.9332895117	-0.1805952092	-0.475514
C	-2.9946328973	-0.0183724721	-1.2332261135	 0.301562
C	-3.3530730731	 0.7436211129	-2.0911727282	-0.447291
O	-0.5028817868	-2.1136641774	 0.4705416834	-0.183911
C	 0.8105255226	-1.8458803184	 0.5428394718	 0.067894
N	 1.1466767003	-0.6517199271	 0.1762948802	-0.301884
H	 0.7980144938	 1.5739755063	-0.9656717731	 0.252428
H	-0.8697670769	 1.5192835024	-1.1465079441	 0.253395
H	-2.8833687011	-1.9513645812	-0.4270612876	 0.156075
H	-3.0707987726	-0.6725972632	 0.7566747808	 0.150066
H	-3.6906116189	 1.399436534	-2.8554650349	 0.204748
H	 1.4537377745	-2.6386057239	 0.8914809956	 0.147794
