18
0 0
C	-0.057557649	 1.5545829893	 0.1315383648	-0.511754
C	 0.0838423736	 0.067327138	 0.043150825	 0.303005
N	-0.8509045861	-0.8692517993	 0.7114749735	-0.348126
C	 0.6075280748	-0.9365208854	 0.9973791124	-0.122207
C	 1.3097182268	-1.6978689859	-0.1661953244	-0.12221
N	 0.2809594798	-2.0967707648	-1.1641016654	-0.34813
C	 0.798464493	-0.7077932576	-1.1413175366	 0.303008
C	 1.429224708	-0.0580679057	-2.3328431659	-0.511742
H	 0.8658254799	 2.0661050787	-0.1613328771	 0.123194
H	-0.8612326151	 1.920533444	-0.5188930599	 0.129702
H	-0.2928313153	 1.8598298095	 1.1571378853	 0.117749
H	-1.2641508778	-0.3476579682	 1.4867954996	 0.219319
H	 0.9971817862	-0.8129192128	 2.0000495247	 0.089116
H	 2.2706962489	-2.1936985734	-0.1102714381	 0.089117
H	 0.7875087811	-2.5727169411	-1.9129920295	 0.219319
H	 0.6752947241	 0.2540091458	-3.0656950146	 0.129703
H	 2.0058062703	 0.829642197	-2.0507260694	 0.123193
H	 2.1144195368	-0.7513171181	-2.8331390547	 0.117744
