16
0 0
C	-0.1370527181	 1.5743387978	-0.0371562587	-0.376666
C	 0.1001307357	 0.0564660601	 0.0404813899	-0.269201
C	 0.8095569097	-0.4706843653	-1.1734951438	 0.334499
C	 2.0520304856	-1.0170886305	-1.133395282	-0.321835
C	 2.6981181454	-1.5019910958	-2.3279766698	 0.43993
O	 3.7761169786	-2.0028018341	-2.4629092544	-0.330103
O	 1.8986551689	-1.3414064394	-3.4993322493	-0.202588
C	 0.6870818137	-0.7892398042	-3.4171478026	 0.14393
N	 0.1026219755	-0.3532973026	-2.3650254682	-0.323962
H	 0.8119081509	 2.1188341226	-0.0623968311	 0.123356
H	-0.7010470191	 1.8274318719	-0.9381929801	 0.143745
H	-0.7030438187	 1.9162815463	 0.833598286	 0.121864
H	 0.6716937855	-0.1974291183	 0.9380471142	 0.111445
H	-0.8686454068	-0.453338623	 0.1101883071	 0.128112
H	 2.6100728214	-1.1143769669	-0.2108312501	 0.126186
H	 0.204095962	-0.7393391184	-4.3896398071	 0.151289
