17
0 0
C	 0.0058957855	-1.2216008846	 0.0242119221	-0.474993
C	 0.0031809684	-0.0198642778	 0.0177159877	 0.376189
C	-0.028082036	 1.4349555581	 0.0216760053	-0.268109
C	-0.5345855685	 2.0014105984	 1.4122523624	-0.258077
C	 0.7535842043	 2.150782884	 2.2196358542	-0.198348
C	 1.7703509879	 2.2635121242	 1.3761493043	 0.202619
C	 3.1548126906	 1.7832857001	 1.0203303868	-0.157411
O	 2.6161598536	 1.3100991882	-0.254883214	-0.296372
C	 1.3900697633	 2.078943745	-0.0540454604	 0.11827
H	 0.0209684815	-2.2831579013	 0.0176985141	 0.195761
H	-0.6677994146	 1.7818188314	-0.7973501111	 0.100665
H	-1.06190337	 2.9530033193	 1.2656035584	 0.111817
H	-1.2391587638	 1.3132493339	 1.8863029911	 0.124152
H	 0.7891218967	 2.0544967238	 3.2978438171	 0.104916
H	 3.9155335168	 2.5579347673	 0.8595609213	 0.110406
H	 3.5721541159	 0.9743403919	 1.6286579727	 0.125977
H	 1.3920948083	 2.9570937178	-0.7134970818	 0.082539
