19
0 0
C	-0.0159804581	 1.4497227064	-0.0824071006	-0.502889
C	 0.0085918918	-0.0409158168	-0.0006945105	 0.420531
O	 0.1895726105	-0.7294681475	-1.2284947429	-0.311622
C	 0.0828543637	-2.0741854304	-0.7542285762	 0.439143
C	 0.0640010152	-3.0766022997	-1.8700216338	-0.488354
C	 1.1628328777	-2.1218598897	 0.3579872604	-0.258822
C	 0.6254206853	-0.909322537	 1.0969298662	-0.221711
C	-0.8762060694	-0.9519651571	 0.8154928833	-0.003197
O	-1.1366673923	-2.0741740687	-0.0016853053	-0.282397
H	 0.944348009	 1.8414105041	-0.4335399587	 0.129735
H	-0.796962631	 1.7868609403	-0.7712861491	 0.13402
H	-0.2180326649	 1.8798064644	 0.9028019597	 0.122976
H	 0.9975504752	-3.0256149573	-2.434922063	 0.132186
H	-0.0509423392	-4.0846033646	-1.465032472	 0.132673
H	-0.770442664	-2.8669760739	-2.5428140778	 0.141068
H	 1.1128306211	-3.047595823	 0.9357443678	 0.108213
H	 2.1673046451	-1.9786557598	-0.0464328134	 0.107739
H	 1.0503091826	-0.5046047898	 2.005009489	 0.093257
H	-1.6755982583	-0.6657112999	 1.483736847	 0.107452
