19
0 0
N	-0.0091721729	-1.1830915013	-0.0569073064	-0.339718
C	-0.0300374343	-0.0271863084	-0.0221883915	 0.192892
C	-0.0411424121	 1.4244290197	 0.0385249408	 0.160239
C	-0.163760796	 2.1346387507	 1.4233581896	-0.21727
N	 0.7450834991	 3.2161580789	 0.9102802062	-0.111202
C	 1.3043616913	 2.1987775192	-0.037884666	-0.200162
C	-0.0438209472	 4.191469219	 0.1304743969	-0.164926
C	-1.2431334913	 3.5598694293	-0.6327575962	-0.235446
C	-1.021983257	 2.0649474788	-0.9728321018	-0.245982
H	-1.1544742962	 2.4524867819	 1.7553184788	 0.116837
H	 0.3294022068	 1.577335171	 2.223365775	 0.127271
H	 2.1371396683	 1.66206305	 0.4244181514	 0.12363
H	 1.6058964437	 2.5807143058	-1.0174270227	 0.110389
H	-0.4091126261	 4.965760163	 0.8132419082	 0.109251
H	 0.6511406504	 4.6819979368	-0.5590971763	 0.111414
H	-2.1385169781	 3.6436426928	-0.0097912267	 0.115062
H	-1.4588655581	 4.1286328879	-1.5415692513	 0.10922
H	-0.6059956792	 1.9370624113	-1.9780336643	 0.118272
H	-1.9781547111	 1.5335849435	-0.9572660038	 0.120229
