22
0 0
C	 0.0638180165	 1.5796192722	 0.0475053162	-0.392952
C	-0.0157632647	 0.049543659	 0.0008123143	-0.185536
C	-1.4413351305	-0.5174869474	-0.0344644844	-0.01485
C	-2.1702587757	-0.207696028	-1.3388737538	-0.076822
O	-3.4826816921	-0.780186254	-1.3568244145	-0.261988
C	-3.6151781144	-2.0181539249	-0.7975188091	 0.393642
C	-4.9856980502	-2.5670188968	-1.0666358243	-0.451807
N	-2.7497270126	-2.6638305653	-0.1332883638	-0.313475
C	-1.4599845288	-2.0421123931	 0.1409065981	-0.170482
H	 1.1029859243	 1.9145276634	 0.1204821112	 0.116874
H	-0.3647684032	 2.0411570264	-0.8478358735	 0.11907
H	-0.4749368416	 1.9763770108	 0.9149827315	 0.118813
H	 0.540116876	-0.3231982292	-0.8706254398	 0.097034
H	 0.495388859	-0.3626563137	 0.8801772587	 0.101427
H	-2.0226202061	-0.070373304	 0.7842040635	 0.082576
H	-2.3192659981	 0.8630051784	-1.4961670698	 0.113731
H	-1.6005359227	-0.6027254861	-2.1928885656	 0.103912
H	-5.1515920878	-2.6668046907	-2.1442293969	 0.134065
H	-5.09097169	-3.5384626905	-0.5856569154	 0.142387
H	-5.7487847208	-1.8804793871	-0.6858342685	 0.135519
H	-0.7021114404	-2.5022272603	-0.5108044186	 0.1028
H	-1.1706941061	-2.305452799	 1.1655514144	 0.106061
