16
0 0
O	 0.9450199152	-0.1544789196	 0.2998425429	-0.242032
C	 0.5959555512	 0.7751512733	-0.378450044	 0.155334
C	 0.5130841814	 2.2083811315	 0.1245545128	-0.244721
N	 0.483350164	 3.1293426586	-0.9960482369	-0.343298
C	 0.8983397023	 4.3047773274	-0.839011165	 0.417824
C	 0.9838170521	 5.3816725112	-1.9008639492	-0.189606
O	 1.2010640014	 6.5699870805	-1.152981304	-0.234086
C	 1.8359331585	 6.1667774195	 0.0276792845	 0.021843
O	 1.3598073789	 4.8510882244	 0.3251558909	-0.239985
H	 0.2865819121	 0.6557554268	-1.4405815215	 0.088977
H	-0.4273723431	 2.2839263379	 0.693895078	 0.142999
H	 1.3244481389	 2.3893757878	 0.8404250343	 0.137154
H	 1.8152043299	 5.1752135054	-2.5918729576	 0.129637
H	 0.060668097	 5.4772151877	-2.4740205762	 0.15285
H	 2.931224651	 6.1238397561	-0.085046997	 0.109619
H	 1.5577871093	 6.8411089316	 0.8409453379	 0.137491
