23
0 0
C	 0.0092339954	 1.5347434131	-0.1001258795	-0.380273
C	 0.0262340946	 0.0065646416	-0.0018287425	-0.185402
C	-1.3693532302	-0.6036481515	 0.0704351012	 0.132736
O	-2.0915945752	-0.2468594631	-1.1143615825	-0.271913
C	-3.1327249497	-1.1951648028	-1.3070693753	-0.136225
C	-2.6125791472	-2.5184686745	-0.7591824095	 0.325252
C	-3.6056649389	-3.5991074488	-0.4129805143	-0.48843
C	-1.2019954785	-2.8461462015	-1.1836488002	-0.332642
C	-1.4489728587	-2.1221304024	 0.1199599648	-0.109303
H	 1.0251797279	 1.9379859156	-0.1518563546	 0.106666
H	-0.5346273268	 1.8564520378	-0.9917821084	 0.135565
H	-0.4829728201	 1.9814434501	 0.7712726653	 0.108834
H	 0.5507028736	-0.4217328119	-0.863695749	 0.099909
H	 0.5786753165	-0.3070273664	 0.8929063951	 0.091743
H	-1.891194103	-0.1975605608	 0.9569089608	 0.057844
H	-4.0453951767	-0.9024522817	-0.7594220238	 0.083743
H	-3.3677155445	-1.2119870688	-2.3774207505	 0.102677
H	-4.1192977167	-3.9719010383	-1.3072618014	 0.119488
H	-3.1109354537	-4.4530839901	 0.0597317373	 0.117874
H	-4.3715848463	-3.229961451	 0.2794278979	 0.116144
H	-0.8962630429	-3.8852030479	-1.1208918553	 0.10528
H	-0.7635491866	-2.2933005287	-2.0084865379	 0.118583
H	-1.2534728824	-2.624039848	 1.0610682723	 0.081849
