25
0 0
C	 0.0409553991	 1.6033618716	 0.0144779778	-0.381842
C	 0.0143465549	 0.0724691578	-0.0080689031	-0.202024
C	 0.6371461776	-0.5476517738	 1.2510714847	 0.093314
O	-0.0972943541	-0.1739833702	 2.4188350016	-0.44282
C	 0.8450335465	-2.077426411	 1.1797010236	 0.342754
C	-0.4511807199	-2.8384746272	 0.9081598929	-0.48319
C	 2.06315794	-2.4506038352	 0.2703775222	-0.261332
C	 2.9544960424	-2.5773249315	 1.5346714609	-0.210593
C	 1.6735344988	-2.5688495329	 2.4107800032	-0.258567
H	 1.0702942617	 1.9788609116	 0.0102751506	 0.113144
H	-0.471359858	 2.0242318717	-0.8559981096	 0.106846
H	-0.4451521849	 1.9810701995	 0.918018365	 0.128008
H	-1.0238373804	-0.2748422563	-0.0994509186	 0.087811
H	 0.5383541301	-0.3003748047	-0.8961565081	 0.099621
H	 1.6225065459	-0.0879464887	 1.4058709557	 0.077698
H	-1.0017077302	-0.4867391229	 2.3086912886	 0.276551
H	-0.8722666087	-2.5985773266	-0.0739463116	 0.116937
H	-0.2728440449	-3.9181853155	 0.9347767297	 0.113489
H	-1.2159784415	-2.6240880071	 1.6655270661	 0.101618
H	 1.9135444816	-3.4090526297	-0.2352908532	 0.093915
H	 2.3652896732	-1.7150759849	-0.4809280192	 0.092231
H	 3.5911421977	-3.4625167609	 1.5991159951	 0.094638
H	 3.5833662502	-1.6979938082	 1.6965587874	 0.102996
H	 1.6576673606	-1.9130785579	 3.2833751205	 0.110994
H	 1.3795010221	-3.574063317	 2.7270727775	 0.087802
