20
0 0
C	-0.1001631392	 1.4617120812	 0.0803818491	-0.495638
C	-0.0239000104	-0.0381560433	-0.0347412528	 0.317598
C	-0.4223459101	-0.776903777	-1.3005583629	-0.295489
C	-0.18572732	-2.1899300888	-0.8250084583	-0.098091
N	-0.4928281573	-2.338898102	 0.6403220834	-0.206003
C	-0.3570345645	-0.9212756893	 1.14256527	-0.057452
C	 1.0745466095	-0.8149752613	 0.6869325531	-0.216532
C	 0.9287079667	-2.255906351	 0.157800778	 0.357098
C	 1.9136725547	-3.3668219909	 0.3398355504	-0.509752
H	 0.5611675474	 1.9521237575	-0.642747229	 0.119929
H	-1.1193134495	 1.8211446222	-0.1015539736	 0.12098
H	 0.1963382787	 1.7974980071	 1.0793571435	 0.119855
H	-1.4684291344	-0.5946319761	-1.5726358698	 0.103951
H	 0.2098109206	-0.5216547938	-2.1590740438	 0.101868
H	-0.4494409788	-3.0518844605	-1.4283272832	 0.090272
H	-0.8626627246	-0.6124854601	 2.0484359357	 0.090831
H	 1.9400900851	-0.3677925539	 1.1569981725	 0.085474
H	 2.2473431213	-3.4305435259	 1.381425096	 0.124356
H	 1.4616151774	-4.3261762976	 0.0715125713	 0.128799
H	 2.7981318176	-3.2154285067	-0.2903135296	 0.117947
