21
0 0
C	 0.1084037437	 1.4684029104	 0.3088757846	-0.384828
C	 0.0068413036	-0.0356523421	 0.0453239266	-0.169535
C	-1.4433154825	-0.5300319206	-0.0378681196	-0.187993
C	-1.537090149	-2.0238429255	-0.2754227187	 0.121483
O	-1.0176938338	-2.7916560409	 0.8746235237	-0.259421
C	-2.2208360756	-3.4197054755	 1.0667634598	 0.452928
O	-2.508914345	-4.1940044353	 1.922481148	-0.327886
C	-2.8992341233	-2.7548719216	-0.1343456477	-0.216751
C	-4.1929789624	-1.9930745828	 0.1262555398	-0.41299
H	 1.1524740416	 1.790840154	 0.3637101895	 0.117365
H	-0.3775171629	 2.0464732475	-0.4853013645	 0.113326
H	-0.3728422714	 1.7377452791	 1.2554541858	 0.118426
H	 0.5262193718	-0.2829286826	-0.8899218979	 0.096512
H	 0.5214676593	-0.5898166015	 0.838273852	 0.123565
H	-1.9735375557	-0.2728048824	 0.8868502232	 0.106329
H	-1.9675221929	-0.0177377146	-0.8561724561	 0.102569
H	-0.9736184758	-2.3116883512	-1.1688566211	 0.092677
H	-3.0493688004	-3.486585218	-0.9344566367	 0.114522
H	-4.0875280585	-1.2667195717	 0.9360101063	 0.131695
H	-4.5236525492	-1.461041425	-0.7708126836	 0.125436
H	-4.9806911515	-2.6957732796	 0.4120870766	 0.142572
