18
0 0
C	 0.0891108899	 1.5095273125	 0.0789101008	-0.487235
C	-0.0144612507	 0.0202452802	 0.0002354779	 0.314601
C	-0.130404204	-0.7255317797	-1.1030673778	-0.254743
C	-0.1164074379	-2.1867474812	-0.7809204075	 0.203745
N	 1.1784084406	-2.6032197991	-0.1327448219	-0.374867
C	 0.0227999664	-2.2685459404	 0.7127070504	-0.108261
C	 0.0404766267	-0.844997466	 1.2514270165	-0.307928
C	-0.8436700169	-3.1408880102	-1.5601930561	 0.191382
C	-1.44120384	-3.9353474103	-2.2384841643	-0.409756
H	 1.0517622669	 1.8164295622	 0.507011508	 0.131286
H	-0.0051314526	 1.9718674967	-0.9070919813	 0.1268
H	-0.6891622301	 1.9270161106	 0.7306168254	 0.124476
H	-0.1897388454	-0.3548154953	-2.1188010458	 0.09861
H	 1.2439586257	-3.6190443955	-0.1943619967	 0.232839
H	-0.462763936	-3.059965388	 1.2727494322	 0.10041
H	 0.9455766779	-0.649654256	 1.8396101438	 0.120711
H	-0.8174579835	-0.6517516687	 1.9092433001	 0.107796
H	-1.9754704368	-4.6361109919	-2.8307196437	 0.190134
