15
0 0
N	 0.2963652113	 1.4101264291	-0.6237250268	-0.476973
C	 0.2074679723	 0.2553121226	-0.0880032837	 0.243395
C	-1.1552253126	-0.3893016332	-0.1426095086	 0.159406
O	-1.403796052	-1.5009099863	 0.2480331926	-0.255252
N	 1.1769832593	-0.4382394496	 0.6254661438	-0.097073
C	 1.5664391872	-1.8047234229	 0.3667962365	-0.228099
C	 2.5513938065	-0.6759164633	 0.1731102191	-0.215716
C	 2.9628600875	-0.2974411698	-1.1505553568	 0.330945
C	 3.3154878141	 0.0439908399	-2.24813824	-0.441173
H	 1.2486735601	 1.77728603	-0.5710850132	 0.233383
H	-1.9077946781	 0.2791544511	-0.6043113164	 0.113089
H	 1.6580672357	-2.4455090024	 1.2385270168	 0.138803
H	 1.1890099519	-2.2847739438	-0.5302702029	 0.148827
H	 3.2948818137	-0.5149746628	 0.9501541296	 0.133454
H	 3.6242406231	 0.3329069714	-3.22278496	 0.212985
