20
0 0
C	 0.1188207423	 1.6292544469	 0.1913909338	-0.221578
C	 1.4886856995	 2.050843378	-0.4064366796	-0.206917
C	 2.2743424137	 0.731446594	-0.6218161198	 0.033135
C	 1.1551956484	-0.2616291593	-0.9689264801	-0.238572
C	 0.0525998981	 0.0808021186	 0.0474264463	-0.014496
C	 0.2676746342	-0.6458859844	 1.372725604	-0.078029
O	 1.3811099845	-0.2279790206	 2.1718183417	-0.232902
C	 2.6252791152	 0.0169329241	 1.672404165	 0.122965
N	 3.0632378093	 0.3872696987	 0.5503879303	-0.256603
H	 0.025034149	 1.926934989	 1.2393630163	 0.1103
H	-0.704088951	 2.1037572038	-0.3491099831	 0.099125
H	 1.3469834485	 2.5412972736	-1.3749516056	 0.097327
H	 2.0452437739	 2.7414462006	 0.2302439388	 0.108915
H	 2.9820926291	 0.8360322403	-1.4492226076	 0.073636
H	 0.8084013058	-0.0679820856	-1.9909499656	 0.094643
H	 1.4821795603	-1.3047232398	-0.9195414403	 0.097364
H	-0.9297766055	-0.2473647631	-0.309702333	 0.073845
H	-0.593937372	-0.4963519057	 2.0303019062	 0.11455
H	 0.3689637584	-1.7242541592	 1.1883193627	 0.10667
H	 3.3336534783	-0.1122872298	 2.4923737397	 0.116623
