17
0 0
C	-0.1233328819	 1.5018998194	 0.1753341095	-0.328497
N	 0.4155430116	 0.1638992493	-0.0364648353	-0.27418
C	 0.8668195784	-0.5204609089	 1.1526431391	-0.216286
C	-0.1309367738	-0.5812739934	 2.2549093528	 0.266894
N	-0.9447597294	-0.5915945811	 3.0760461079	-0.324676
C	 1.2434494793	-1.9658281329	 0.7816769091	 0.465475
O	 0.7800669976	-2.5550477324	-0.157285652	-0.349614
O	 2.1242737879	-2.4598449708	 1.65392862	-0.226666
C	 2.4970387202	-3.8341811921	 1.4473977965	-0.246934
H	 0.662478964	 2.1541936398	 0.5725267939	 0.127557
H	-0.4363359947	 1.9079457633	-0.7895112542	 0.132569
H	-0.9789111925	 1.5411328661	 0.8673899175	 0.128518
H	-0.2318586055	-0.4372038611	-0.5348673188	 0.246171
H	 1.7581378874	-0.0255293963	 1.5559929533	 0.150153
H	 1.6162370869	-4.4777322879	 1.5021310432	 0.153158
H	 2.9700209037	-3.9560170008	 0.4704573772	 0.150523
H	 3.1974837207	-4.0707895602	 2.2470970803	 0.145835
