17
0 0
C	-0.036107147	 1.3598965398	 0.5202086115	-0.348074
N	 0.015784759	 0.1030441904	-0.1775806752	-0.06644
C	-1.0691064681	-0.8234700558	-0.5013184582	-0.201521
C	 0.0329652474	-1.8916683565	-0.838738295	 0.068593
N	-0.0928593556	-3.1563107749	-0.1377555837	-0.550668
C	 0.1808798494	-2.1264718513	-2.2748557214	 0.28589
N	 0.302076027	-2.2988560572	-3.4107083299	-0.330961
C	 1.0310399192	-0.8250954512	-0.2986761634	 0.317388
N	 2.2636899697	-0.9164095937	-0.0412286622	-0.556462
H	 0.97337344	 1.7763286915	 0.576557113	 0.144511
H	-0.666757892	 2.0741335245	-0.0194768078	 0.142963
H	-0.4256472525	 1.2558543044	 1.5433492513	 0.127894
H	-1.680373147	-1.1284946659	 0.3577240861	 0.116571
H	-1.7162629901	-0.5100311476	-1.3251365917	 0.134994
H	 0.7007780213	-3.7476751438	-0.3702227138	 0.257999
H	-0.0333748988	-2.9860068936	 0.8629614244	 0.240466
H	 2.6441817081	-0.0711241691	 0.3863598861	 0.216857
