16
0 0
N	-0.1425749683	 1.288919986	-0.0961563575	-0.545503
C	-0.0293278164	 0.024887649	-0.0690206211	 0.317307
C	 1.1757399418	-0.9484516156	-0.0741133849	-0.268492
N	 0.6436011276	-2.3134595671	 0.110472175	-0.382178
C	-0.6124555043	-2.134658327	 0.1432577244	 0.509292
O	-1.6130056081	-3.0028526797	 0.3443109171	-0.261431
C	-2.8642022636	-2.2857056279	 0.2029612441	-0.105
C	-2.5152848706	-0.771261741	 0.258373795	-0.198924
N	-1.1024168241	-0.8477404722	-0.0172128433	-0.110652
H	 0.7753320208	 1.7300544782	-0.1316644463	 0.222145
H	 1.7247406487	-0.8703803037	-1.0204926673	 0.136563
H	 1.8778847856	-0.6936320255	 0.7278612916	 0.135651
H	-3.3084372636	-2.5611470653	-0.7583619655	 0.135262
H	-3.5252740924	-2.6047858397	 1.0097413219	 0.138877
H	-3.0564409546	-0.1945486371	-0.495493812	 0.142569
H	-2.7133649683	-0.3288685615	 1.2420946987	 0.134515
