20
0 0
C	-0.2252007206	 1.5880061013	 0.2801780879	-0.375212
C	 0.2200272236	 0.1989199699	-0.1698601458	-0.107384
N	 0.7691270776	-0.5348226095	 0.9678187796	-0.089098
C	-0.0585950318	-1.3019133209	 1.9086984622	-0.082368
C	-1.4142925652	-1.7436545132	 1.4502035991	-0.078018
C	-1.3264177396	-2.566767931	 0.4048109851	-0.1336
C	 0.1204828342	-2.8849082271	 0.0561115939	 0.071432
O	 0.4726929726	-2.6461238341	-1.3035056492	-0.426751
C	 0.9243793911	-1.9773699682	 0.9947705437	-0.060413
H	 0.5960961654	 2.120798537	 0.7681273775	 0.122063
H	-0.5664722697	 2.1790325716	-0.5754711525	 0.108024
H	-1.0537804128	 1.5214417351	 0.9939142284	 0.110583
H	-0.6073702489	-0.3200192328	-0.6700306766	 0.094846
H	 1.0270453968	 0.2760499167	-0.9059101384	 0.108169
H	 0.1301555571	-1.1121778951	 2.9613894578	 0.089378
H	-2.334065264	-1.379880735	 1.894640341	 0.100955
H	-2.158465182	-2.964986927	-0.167694808	 0.093629
H	 0.3466551122	-3.9328067539	 0.3167317936	 0.078159
H	-0.0393181583	-3.247571115	-1.8536543441	 0.284345
H	 1.8938742623	-2.3353766487	 1.3284141746	 0.091261
