21
0 0
C	-0.088774603	 1.513660148	-0.0015010332	-0.482173
C	 0.0262502574	 0.0072119225	 0.0006712167	 0.303368
C	 1.3683918291	-0.653662855	-0.2335001527	-0.378077
C	 0.7028552504	-0.7918678521	 1.1196064094	 0.303369
C	 1.3277521628	-0.1592586559	 2.3410531735	-0.482173
C	-0.0710046069	-2.0851378	 1.3186316961	-0.382901
C	-1.0517035484	-2.1739948754	 0.144168467	 0.38086
O	-1.6335091756	-3.1653300306	-0.2119747106	-0.307082
C	-1.169719042	-0.7875438249	-0.4983689558	-0.382901
H	 0.8011030912	 1.9932336145	 0.4152979996	 0.117258
H	-0.2141667234	 1.8925025971	-1.0226157922	 0.121607
H	-0.9548752092	 1.8485754528	 0.5817977146	 0.11493
H	 1.4295538597	-1.5195393365	-0.8888434632	 0.111752
H	 2.2345235716	-0.001811203	-0.2917205869	 0.108946
H	 1.8226910127	 0.786697954	 2.1048412113	 0.117258
H	 0.5774702748	 0.0388287902	 3.1158913768	 0.114929
H	 2.0841411161	-0.8217065187	 2.7780415731	 0.121607
H	 0.5479043643	-2.9869633623	 1.3671974153	 0.126383
H	-0.6582964953	-2.0517555404	 2.2474964433	 0.123328
H	-2.11157353	-0.3354206719	-0.1558624934	 0.123328
H	-1.2386837966	-0.8769800425	-1.5873782887	 0.126383
