21
0 0
C	-0.2264281774	 1.5717006874	 0.0224316701	-0.390001
C	-0.0070918773	 0.0526801823	-0.0551302136	-0.018601
C	 0.7564324494	-0.38028323	-1.323004829	-0.216935
C	 2.2776369952	-0.2512839567	-1.1430040149	-0.250978
C	 2.6942021527	-0.7247167386	 0.2475333621	 0.010755
C	 1.7404869347	-1.640983865	 1.0758027715	 0.00454
O	 2.3959819133	-1.1659342775	 2.310523836	-0.314215
C	 2.1712065504	 0.0421380374	 1.4898133906	 0.038274
C	 0.7308656704	-0.4582718022	 1.185713161	 0.007501
H	 0.7232500732	 2.1172306239	-0.0128496879	 0.115784
H	-0.8419044846	 1.9217245798	-0.8126268845	 0.112428
H	-0.7317174923	 1.8527522554	 0.9525979965	 0.115452
H	-0.9961714265	-0.4228069846	-0.0764006266	 0.072027
H	 0.5243541805	-1.4338467888	-1.5216423606	 0.098081
H	 0.4131586009	 0.1837909251	-2.1969152274	 0.090669
H	 2.7943946797	-0.8362148423	-1.911754797	 0.100637
H	 2.6062273799	 0.7870387411	-1.2815310182	 0.102203
H	 3.7455865869	-1.0068967953	 0.3364666401	 0.076238
H	 1.5529373627	-2.7129005742	 0.9925945271	 0.085089
H	 2.5033232096	 0.9969780419	 1.9012166687	 0.085289
H	 0.1079001987	-0.507682749	 2.0822911659	 0.075765
