20
0 0
C	-0.1292298909	 1.4883879911	-0.056267551	-0.317145
N	 0.1259889312	 0.0588854435	 0.0412504022	-0.08669
C	 1.4256425963	-0.5382169147	-0.1497791611	-0.060792
C	 0.7303178316	-0.5715244272	 1.1915251492	-0.066698
C	 1.8624260909	 0.2635363449	 1.8329781455	-0.057067
C	 2.6516892948	-0.5023262195	 2.8780466694	-0.115299
O	 3.871734839	 0.2151401612	 3.1041026125	-0.429319
C	 2.5776870881	 0.3036871141	 0.4314847871	 0.109962
O	 3.7849415106	-0.4181417984	 0.3629834115	-0.445499
H	 0.6247377308	 2.1379187952	 0.4095380821	 0.110605
H	-0.2007940716	 1.7578152299	-1.1144182224	 0.125838
H	-1.0948930833	 1.702048126	 0.4124923836	 0.122635
H	 1.5556355445	-1.3130357701	-0.8979363349	 0.09767
H	 0.1919802955	-1.3778298915	 1.6816663366	 0.087458
H	 1.5697563597	 1.235989694	 2.2429322293	 0.073499
H	 2.0686355421	-0.5805252922	 3.8071195065	 0.096093
H	 2.8630157788	-1.5178514865	 2.5182984729	 0.108902
H	 4.3899331232	-0.2673988425	 3.7558350427	 0.293149
H	 2.6955667602	 1.3082698158	 0.0009150552	 0.06471
H	 4.3278837385	-0.1098445531	 1.1022927532	 0.287988
