19
0 0
C	-0.0388579421	 1.5916937043	 0.0909943365	-0.43699
C	-0.0500306205	 0.061761351	-0.0188093207	 0.342401
O	 0.6738499012	-0.538178618	 1.0514602616	-0.488469
C	-1.4876340967	-0.4770841971	-0.0013816675	-0.12054
O	-1.9892899489	-0.2155506742	 1.3084752213	-0.43877
C	 0.658582855	-0.4252021247	-1.3069845858	 0.024604
O	-0.0017333245	 0.0227601077	-2.4580174763	-0.442149
C	 2.1125391483	 0.0079672304	-1.3335941877	 0.128401
O	 2.5598186802	 0.6195949871	-2.2761284735	-0.273101
H	 0.9788421842	 1.9535349069	 0.2619422238	 0.120861
H	-0.4242166539	 2.0411547408	-0.8281199058	 0.129368
H	-0.6642145148	 1.9118788512	 0.9277290949	 0.131097
H	 0.0703238185	-0.5393523145	 1.8057876344	 0.291205
H	-2.0891448975	 0.0150732247	-0.7748709462	 0.117901
H	-1.4695189982	-1.5576036776	-0.2026522534	 0.093805
H	-2.8264181442	-0.674693384	 1.4159123098	 0.297735
H	 0.6686942427	-1.5291624212	-1.2598505038	 0.097814
H	 0.6786896428	 0.4769405226	-2.9826185042	 0.296281
H	 2.7287908284	-0.2733736155	-0.4624472074	 0.128548
