17
0 0
O	 0.0583100348	 1.3894648481	 0.0346062582	-0.439206
C	 0.0178910578	-0.0090131143	-0.0118820377	 0.046621
C	-1.4319535865	-0.5552336702	 0.0352465799	-0.282864
C	-1.5138758909	-2.0095227444	-0.3454895591	-0.067999
C	-0.5555311864	-2.6713821731	-0.991451155	-0.08212
C	 0.7605101631	-2.0490463858	-1.4130385561	 0.021163
O	 1.1030510629	-2.4140942278	-2.7273761501	-0.440599
C	 0.6721227817	-0.5412210471	-1.2680267771	 0.323729
O	 1.0570583889	 0.2031883299	-2.147702584	-0.356705
H	 0.4222971184	 1.6727584127	-0.8181104438	 0.29515
H	 0.5626750589	-0.4269385558	 0.8495758713	 0.105986
H	-1.8409836415	-0.3860960793	 1.0370690109	 0.125135
H	-2.0428341828	 0.0522453738	-0.6460793642	 0.132822
H	-2.4301039571	-2.5300879522	-0.0782644686	 0.104166
H	-0.6739568783	-3.716128219	-1.2623519269	 0.112996
H	 1.5531918326	-2.3892157073	-0.7192218048	 0.105986
H	 1.3269082544	-1.5874472981	-3.1809011729	 0.295739
