19
0 0
C	-0.2385956903	 1.5015914788	-0.1399011414	-0.414501
C	 0.0964056171	 0.0186317541	-0.1728385728	-0.105334
C	 1.4761916316	-0.3896416605	-0.7321340178	-0.087627
O	 1.8264931709	-1.0556039549	 0.4993629093	-0.315818
C	 0.5912357172	-0.676703075	 1.1244640531	 0.43528
C	 0.6921900503	 0.0674396269	 2.4886379935	-0.416051
C	-0.3328311248	-0.9300109434	 3.0484063878	 0.405708
O	-1.0048005567	-0.9635591157	 4.0376940538	-0.292573
C	-0.2323650887	-1.8118417225	 1.7953301569	-0.415237
H	 0.575191236	 2.086224051	 0.301890061	 0.124235
H	-0.4065095	 1.8801198036	-1.1538279735	 0.122945
H	-1.1479214738	 1.6961961529	 0.4387413819	 0.125132
H	-0.7221297083	-0.5406611894	-0.6353840068	 0.084293
H	 1.4756164569	-1.0782939094	-1.584635798	 0.105154
H	 2.153041673	 0.4471812247	-0.948543117	 0.100803
H	 1.6833783311	-0.0720147079	 2.9342740963	 0.144236
H	 0.4274578482	 1.1263168947	 2.5374035557	 0.128232
H	-1.1714251759	-2.1205611087	 1.3274512209	 0.126222
H	 0.3877237161	-2.6983755294	 1.9695936568	 0.144901
