18
0 0
C	-0.1386973066	 1.4988708766	-0.0711764783	-0.331779
N	 0.0550036685	 0.0648331659	 0.0264312252	-0.177971
C	 0.7136628532	-0.5565881875	-1.1501245513	-0.151302
C	 1.3564359212	-1.8899676869	-0.6492234651	-0.366129
C	 1.5276822118	-1.5339331197	 0.7950935391	 0.306456
C	 0.7756938434	-0.4364046617	 1.1285694834	 0.266646
C	 0.941937356	-0.270626833	 2.5167987954	-0.151998
N	 1.7499076478	-1.2233879463	 3.0054246522	-0.228888
N	 2.0765131127	-1.993739067	 1.9444133366	-0.324821
H	 0.8082189221	 2.0568616348	-0.1884405145	 0.099668
H	-0.7783354551	 1.7253681107	-0.9299902835	 0.119982
H	-0.6440835527	 1.8642043038	 0.8271834437	 0.128945
H	-0.0050817067	-0.7082388597	-1.9604725081	 0.108153
H	 1.513686861	 0.1062491757	-1.5223974101	 0.093209
H	 0.6704339667	-2.7374753559	-0.781276707	 0.121334
H	 2.2762044492	-2.1223715514	-1.1938562349	 0.116102
H	 0.5403174596	 0.4754438477	 3.1852955286	 0.103755
H	 2.7000271378	-2.7690301961	 2.0871786986	 0.268638
