19
0 0
C	-0.7337433039	 1.2301658663	-0.5424877439	-0.407443
C	-0.0828530303	-0.1492318872	-0.4235760341	-0.131683
C	 0.9351411984	-0.5433507432	-1.530173331	 0.051306
O	 1.0222589622	-1.9674150862	-1.7143352872	-0.287856
C	 2.1296306664	-2.0724097076	-0.7962787927	-0.121676
C	 2.1245546628	-0.5474586122	-0.5033816526	 0.147634
C	 3.427109165	 0.217157752	-0.5589678727	-0.497424
C	 1.0953581205	-0.1795893783	 0.5787754006	 0.356727
O	 1.197929662	 0.1076529403	 1.7373227804	-0.309382
H	 0.0065767724	 2.005514179	-0.7682058461	 0.119721
H	-1.4848654421	 1.2388830871	-1.3379676696	 0.126293
H	-1.2196694073	 1.5015933893	 0.3986826013	 0.141505
H	-0.8348256509	-0.926019373	-0.2538026934	 0.111801
H	 0.9180153407	 0.0144913411	-2.4697316861	 0.082319
H	 1.9244150566	-2.7459525262	 0.0439808321	 0.115528
H	 3.0428214166	-2.4035483932	-1.3071474122	 0.109808
H	 3.9953737732	-0.0329412468	-1.460635684	 0.124521
H	 3.2591251961	 1.2985971254	-0.5488146396	 0.127459
H	 4.0447202316	-0.0255094064	 0.3125555908	 0.140844
