16
0 0
O	-0.0872727441	 1.4025677356	 0.0087299388	-0.45248
C	-0.0081422597	-0.0259801354	 0.0127429321	 0.198232
C	 0.5846458103	-0.5337597699	 1.3695438284	-0.290717
C	-0.6378560491	-0.8116006459	 2.2050837511	-0.062623
C	-1.7525159682	-0.8071813757	 1.4782874251	-0.063142
C	-1.4855866632	-0.5182893987	 0.0240609848	-0.274239
C	 0.7593930242	-0.4924621987	-1.1449394296	 0.291793
C	 1.4185211223	-0.8472084932	-2.0861876611	-0.480328
H	 0.8102347663	 1.7423656907	-0.0782539232	 0.280474
H	 1.1901538895	-1.4375747198	 1.2277348714	 0.117576
H	 1.2446151592	 0.2307357074	 1.7959392872	 0.104161
H	-0.5806303698	-1.0135714451	 3.2686433187	 0.093895
H	-2.7492518431	-1.0079482291	 1.8543407967	 0.094117
H	-2.1224933502	 0.2652010089	-0.3975989419	 0.1283
H	-1.6122981088	-1.4129573558	-0.5966386057	 0.118126
H	 1.9899931943	-1.1655530453	-2.9229141028	 0.196856
