15
0 0
C	-0.0199652299	 1.4770206688	 0.0252318993	-0.454457
C	 0.0008580045	-0.0216929306	-0.0185496795	 0.335837
N	-0.0194977385	-0.6133025487	-1.1777051154	-0.332491
C	-0.0000738287	-1.9990207768	-1.2216568676	 0.403908
N	-0.0147592332	-2.7444470993	-2.2533207319	-0.56249
N	 0.0410307425	-2.6437912552	 0.0392576036	-0.34607
C	 0.059008693	-1.931875675	 1.1731030656	 0.515249
O	 0.0977647556	-2.6574579643	 2.2900767955	-0.394895
N	 0.0410054844	-0.6325452131	 1.2201746161	-0.421056
H	 0.8680922138	 1.8446681547	 0.5499952877	 0.142426
H	-0.0535688944	 1.8879344397	-0.9829793217	 0.14216
H	-0.8880505289	 1.8190128174	 0.5984445004	 0.142369
H	-0.0442237095	-2.1508220092	-3.0807167612	 0.227099
H	 0.0563034824	-3.6538448785	 0.0523372993	 0.283175
H	 0.1067334569	-2.0225103998	 3.0214885099	 0.319237
