23
0 0
C	 0.2109017273	 1.6155958412	 0.0114130189	-0.390447
C	 0.1909493591	 0.0859010662	-0.0046217852	-0.180938
C	 0.6647031628	-0.5492340493	 1.3258408774	-0.237722
C	-0.2287551384	-0.2001780364	 2.4331306899	 0.357033
C	-0.9769258204	 0.0765485862	 3.3335388346	-0.481093
C	 0.8510284894	-2.0717449088	 1.2242093493	 0.389851
C	-0.3981396266	-2.8771621496	 0.9205710457	-0.472104
C	 2.1653243272	-2.5518939245	 0.6560865323	-0.317293
C	 1.8822562593	-2.6896489056	 2.1346378136	-0.306878
H	 1.222528132	 1.9972311364	 0.1909052066	 0.111022
H	-0.1328876495	 2.0214676959	-0.9448441963	 0.111404
H	-0.4383856624	 2.007752984	 0.7996795519	 0.131572
H	-0.8212142709	-0.2664154139	-0.2300393334	 0.107138
H	 0.8430886257	-0.2900147113	-0.8016194784	 0.098914
H	 1.6522895147	-0.1215859759	 1.5525509428	 0.093886
H	-1.6270742933	 0.3244469752	 4.1356111062	 0.192294
H	-0.807367787	-2.6380184193	-0.0669316509	 0.11607
H	-0.1786622723	-3.948988593	 0.9339715431	 0.110397
H	-1.1769725888	-2.6822672297	 1.665056964	 0.129984
H	 2.1602454231	-3.4490000894	 0.0458499433	 0.108772
H	 2.8955374273	-1.8113504898	 0.3451226967	 0.107196
H	 2.4179557546	-2.0405132048	 2.8193556188	 0.111958
H	 1.6847280873	-3.6807863638	 2.5287393292	 0.108983
