15
0 0
N	-0.1239096336	 1.3637712696	 0.3315964886	-0.561848
C	 0.0732634544	 0.0519536637	-0.0839390617	 0.245664
N	 1.166653125	-0.5582640624	-0.3241966254	-0.254624
C	 2.4108034967	 0.1082759857	-0.2049787736	 0.033523
C	 3.6192041028	-0.7733823925	 0.0405412969	-0.264805
C	 3.4261943446	-0.1454456811	-1.3064411319	-0.266903
C	-1.1549035487	-0.7107607844	-0.1995224353	 0.272229
N	-2.1558913557	-1.2826259081	-0.2876677526	-0.32233
H	 0.5839787298	 2.0285547069	 0.0599332978	 0.266895
H	-1.0634716826	 1.7180925937	 0.2382036101	 0.271483
H	 2.443208322	 1.0904560706	 0.2659172953	 0.076861
H	 4.3948983853	-0.3869714312	 0.6916101805	 0.118285
H	 3.4182266268	-1.833253843	 0.1370821255	 0.134876
H	 3.0975649141	-0.7815337242	-2.119098428	 0.133046
H	 4.0638470691	 0.6818562968	-1.5969918762	 0.117647
