16
0 0
C	 0.0270376065	 1.4258235174	-0.1347588488	-0.323589
N	-0.0294937851	-0.0269882162	-0.0907068616	-0.349708
C	-1.2418235507	-0.658260994	 0.1034967224	 0.314846
O	-2.269802396	-0.050121658	 0.3439602212	-0.37125
C	-1.1999431853	-2.1292613899	 0.028466536	 0.225512
C	-2.213612659	-3.0317321593	-0.1965807276	-0.126215
N	-1.736159358	-4.3158221394	-0.2080345211	-0.251958
C	-0.4447097966	-4.2067863173	 0.0203211346	 0.022146
N	-0.0594161431	-2.9086679162	 0.1526840657	-0.33759
H	 1.0475014809	 1.7572143622	 0.0726335188	 0.121471
H	-0.290771986	 1.8303032038	-1.1041993434	 0.130569
H	-0.645152429	 1.8183612046	 0.6285629693	 0.166134
H	 0.6561131577	-0.5201429988	-0.6418488264	 0.238516
H	-3.2545630703	-2.804731059	-0.3648013532	 0.136125
H	 0.2546802769	-5.0258237108	 0.101858027	 0.137969
H	 0.8442989669	-2.5840851591	 0.4549938072	 0.267023
