18
0 0
C	 0.0162218862	 1.4472642989	 0.0885897409	-0.174104
C	 1.547900621	 1.4511692716	-0.0890193401	 0.012305
O	 1.9365796866	 1.2981939843	-1.4924380155	-0.345959
C	 1.6032202624	-0.1115163588	-1.4008860675	 0.357234
C	 2.7384791615	-1.1630556832	-1.3016721764	-0.308795
C	 2.4372576919	-1.2500201082	 0.2524135087	-0.357264
C	 1.4444781615	-0.0790526896	 0.0919750402	 0.261293
N	-0.0961110357	-0.0573827729	-0.0237506955	-0.212947
C	 0.0907212069	-0.4201847727	-1.4949310692	-0.24016
H	-0.2627247526	 1.7423213317	 1.1056001948	 0.113278
H	-0.5723890722	 2.0110854756	-0.6404063028	 0.109107
H	 2.1641961587	 2.1799776135	 0.4417643674	 0.081691
H	 2.6124836654	-2.0869712576	-1.8711297263	 0.108758
H	 3.7123039172	-0.7284453195	-1.534034772	 0.124071
H	 1.9329005681	-2.1733455574	 0.547631511	 0.128819
H	 3.2819316841	-1.0883577817	 0.9255296006	 0.118132
H	-0.5073138498	 0.167226787	-2.1969946089	 0.113187
H	-0.1211142609	-1.483955781	-1.6376554594	 0.111354
