14
0 0
O	 0.2225743758	 1.3520989774	 0.2974818528	-0.44703
C	 0.1593342999	 0.0061752555	 0.1251483002	 0.283168
C	 0.7574291677	-1.0660566832	 1.0925981361	-0.293986
C	 0.0658414355	-1.9313449544	-0.0195746948	-0.180147
C	-1.1459762252	-0.9356254142	 0.048663399	-0.230181
C	-1.9896054753	-0.9842948554	 1.2264904757	 0.281085
N	-2.6839665436	-1.0164691822	 2.1509336942	-0.326745
C	 0.6801357186	-0.9123013267	-0.9969585688	 0.371373
O	 1.2577467715	-0.84716011	-2.0349441678	-0.312456
H	 0.214221589	 1.7837493824	-0.5653811581	 0.309408
H	 1.8442971748	-1.1169378928	 1.1594805562	 0.130551
H	 0.2778547287	-1.1153119952	 2.0704103016	 0.155286
H	 0.0040442939	-3.0114026367	-0.0835388232	 0.126085
H	-1.7527481314	-0.8507159846	-0.8551332431	 0.13359
