21
0 0
C	 0.4046437275	 1.7559063695	-0.0718718882	-0.398168
C	 0.0923538676	 0.2576884483	 0.0504730969	-0.083768
C	 0.6612174871	-0.5719501745	-1.1184904447	 0.125051
O	 0.4331454293	 0.080019672	-2.354695132	-0.442181
C	 2.1527535436	-0.7656627361	-0.7602020823	-0.254918
C	 2.1867039047	-0.8446289063	 0.7864750413	-0.294946
C	 0.7907022907	-0.3958713346	 1.2377632189	 0.441717
C	 0.4186441072	-0.161743369	 2.6340027325	-0.259784
O	 0.0253518084	-1.3672957111	 1.9720427048	-0.284878
H	 1.4818870816	 1.9507972939	-0.0917723922	 0.112813
H	-0.0206152986	 2.1584901616	-0.9933889757	 0.137289
H	-0.0155243094	 2.304927322	 0.7762331796	 0.109091
H	-0.9886620532	 0.1189252379	 0.1395884622	 0.084213
H	 0.1607217755	-1.5531740338	-1.107120884	 0.077094
H	 0.7737814184	-0.4817374076	-3.0573627761	 0.283146
H	 2.582012446	-1.6510104225	-1.2382715172	 0.093739
H	 2.7100227563	 0.1025529853	-1.1254654576	 0.109405
H	 2.3634038017	-1.8582670331	 1.1550063305	 0.119602
H	 2.9701571272	-0.205340618	 1.2039562798	 0.108758
H	 1.1652578576	-0.2810817634	 3.4193966336	 0.107837
H	-0.3919822593	 0.5261231894	 2.8748178001	 0.108889
