20
0 0
C	-0.1202436338	 1.4336370998	-0.0204794301	-0.488967
C	-0.2312541243	-0.083141613	-0.0171560653	 0.365403
O	-0.5444038567	-0.7294446345	 0.9731816772	-0.386886
N	 0.0439602214	-0.6809004677	-1.2023301203	-0.107387
C	 0.4362267816	-0.2037046677	-2.5315145102	-0.177149
C	 0.4576909345	-1.6869086725	-3.0110793737	-0.338495
C	 0.0451060574	-2.0818997548	-1.5838173096	 0.392793
C	 0.5254242401	-3.2243168843	-0.7437492717	-0.324146
C	-0.9390665377	-3.1182151893	-1.1377338851	-0.324142
H	 0.8918161819	 1.7556250409	-0.2883656783	 0.133812
H	-0.8091937696	 1.8791522099	-0.7461259934	 0.133804
H	-0.3621914311	 1.798830948	 0.9771872192	 0.147205
H	-0.3118419059	 0.4327560571	-3.0171491472	 0.115725
H	 1.4046645814	 0.3082491551	-2.5552760405	 0.115724
H	-0.2760236501	-1.9225717656	-3.7838084024	 0.117284
H	 1.4397859463	-2.0469802798	-3.3222390597	 0.117283
H	 1.141440302	-3.9779820509	-1.2244307967	 0.108424
H	 0.7659877571	-3.0130536551	 0.2905969226	 0.145651
H	-1.6330013162	-2.8392203274	-0.3547924451	 0.14564
H	-1.3276877284	-3.7991070283	-1.8886658695	 0.108426
