20
0 0
C	-0.0170138031	 1.5133691464	 0.006282149	-0.487835
C	-0.0689893794	 0.0179077589	 0.1517694088	 0.416918
C	-1.2979561576	-0.7766856733	-0.2879774286	-0.234938
N	-1.3203184851	-2.0314634937	 0.497572965	-0.132077
C	-1.5306907098	-1.8137782243	 1.9379042317	-0.289765
C	-0.1555393155	-2.0361994047	 1.4168856978	 0.323691
C	 0.5991620311	-3.3275201795	 1.6072267354	-0.479838
C	 0.61743054	-0.7687688779	 1.1835487731	-0.111665
O	 1.1462935618	-0.6982952702	-0.1514317908	-0.300891
H	 0.9364752681	 1.9032783741	 0.3707000475	 0.132575
H	-0.1204968283	 1.8016312389	-1.0457890272	 0.131277
H	-0.8301465371	 1.989384344	 0.5643948179	 0.122093
H	-2.2233065182	-0.2106033634	-0.130486696	 0.102944
H	-1.2308478317	-1.0268363972	-1.3524437511	 0.117259
H	-1.7997791569	-0.814036042	 2.2767176051	 0.103388
H	-2.0497718981	-2.6197644898	 2.4495815518	 0.116036
H	-0.0893640433	-4.1757646514	 1.6243575435	 0.127828
H	 1.3081438406	-3.4748340396	 0.7866720412	 0.136926
H	 1.1603997174	-3.3184721994	 2.5484373254	 0.11414
H	 1.2400791151	-0.3312051659	 1.9615808306	 0.091935
