15
0 0
C	 0.025327452	 1.51141415	 0.0463143071	-0.535923
C	 0.0316489929	 0.0057665884	 0.0069024187	 0.212583
C	-0.0197832163	-0.7009994049	-1.1903725594	-0.349025
C	-0.0099541715	-2.0903927433	-1.1399262541	 0.339799
F	-0.059161897	-2.7681032433	-2.2883530345	-0.079626
N	 0.0446762118	-2.8031831161	-0.0405802754	-0.32124
C	 0.0944167196	-2.1344641042	 1.1146254093	-0.056224
C	 0.0905161424	-0.7449002333	 1.1926621182	 0.262826
O	 0.1448071456	-0.1810176515	 2.4333221591	-0.437744
H	 0.9321055901	 1.9070061372	 0.5219695396	 0.141697
H	-0.0252288305	 1.9304676867	-0.9604233842	 0.144951
H	-0.8360581339	 1.8973712662	 0.6066995385	 0.141623
H	-0.0666638141	-0.1907432995	-2.1452950887	 0.111722
H	 0.1398388957	-2.7173344457	 2.0300338792	 0.124322
H	 0.136594393	 0.7776660935	 2.3553714967	 0.300259
