14
0 0
O	 0.0792658789	 1.3501322853	 0.1530627201	-0.443492
C	 0.0463948288	 0.0071666644	 0.0175429184	 0.303661
N	-0.0031113725	-0.6395139809	-1.1329330681	-0.300323
N	-0.0183010649	-1.9179515925	-0.7440966089	-0.092336
N	 0.0175859073	-2.1463275536	 0.5680405773	-0.262232
C	 0.0597546623	-0.9211050635	 1.0844464856	 0.361349
N	 0.1089027833	-0.5684691719	 2.4240356138	-0.394995
C	 0.1271570213	-1.3771305812	 3.5393964014	 0.07102
N	 0.0992338566	-2.6470315301	 3.4994986586	-0.423301
H	 0.0604540443	 1.7404827657	-0.7289382888	 0.312422
H	-0.0550102889	-2.6729165685	-1.4058993594	 0.294403
H	 0.1350035181	 0.4246401419	 2.5857283563	 0.265175
H	 0.1686887911	-0.765119199	 4.4494735191	 0.086499
H	 0.1212728042	-3.0208473062	 4.4459438047	 0.222151
