19
0 0
C	 0.2783619854	 1.5803123155	-0.0736391573	-0.388651
C	-0.0390926796	 0.099493422	 0.132051744	 0.066733
O	 0.3541153446	-0.6530468704	-1.0259997083	-0.314215
C	 1.2326236386	-1.7047290293	-0.6763171202	 0.321341
C	 0.8730940049	-3.1109339335	-1.2338456523	-0.123397
O	 2.1743378467	-3.2440061115	-1.8376975865	-0.273016
C	 2.4910414392	-1.8641714013	-1.5717962164	-0.121246
C	 1.4305434176	-1.5682423753	 0.8018729153	-0.147087
C	 0.7073079685	-0.5555209155	 1.2638321318	-0.110805
H	 1.3559699711	 1.7297664365	-0.1872783695	 0.120569
H	-0.2225992303	 1.9497450408	-0.972651804	 0.128954
H	-0.0695780949	 2.1703055398	 0.7808258508	 0.113493
H	-1.1276566893	-0.0127051969	 0.2647122491	 0.086694
H	 0.6676770731	-3.9063524091	-0.5082021381	 0.10019
H	 0.0660599898	-3.0661210148	-1.9764908752	 0.106422
H	 2.4381462709	-1.2379792924	-2.4718060209	 0.106222
H	 3.4701802016	-1.7461082772	-1.0933417976	 0.100148
H	 2.076044456	-2.2295266915	 1.3659555892	 0.117407
H	 0.6379467058	-0.2158059258	 2.289529876	 0.110243
