22
0 0
C	-0.0608929705	 1.5783305046	-0.0382442731	-0.418046
C	-0.016744842	 0.0479041297	 0.0053519994	 0.085438
C	 0.6811174563	-0.4854124014	-1.2552003825	-0.202596
C	 0.747250992	-2.0182504851	-1.288409545	-0.319253
C	 1.2725547171	-2.5747494974	 0.0188230306	 0.389094
O	 2.0450140753	-3.500890441	 0.0884277149	-0.304239
C	 0.6986938906	-1.9110977004	 1.2654083127	-0.240906
N	 0.6956251659	-0.449827491	 1.1917536553	-0.077416
C	 0.213898486	 0.0996109311	 2.4518155151	-0.322832
H	 0.9464800932	 1.9937551625	 0.070292897	 0.126659
H	-0.464572106	 1.9059637367	-1.0007105827	 0.116181
H	-0.6959995271	 2.0024465078	 0.7425856281	 0.119671
H	-1.0640678701	-0.3256291337	 0.0063715967	 0.046742
H	 0.1544482358	-0.1191766615	-2.1425062818	 0.099618
H	 1.6960094674	-0.0714530502	-1.285231876	 0.112342
H	-0.2689544339	-2.4205264286	-1.4158456898	 0.119725
H	 1.3558081794	-2.3981923065	-2.1124515968	 0.120533
H	-0.3274351832	-2.3193495068	 1.4075078478	 0.08809
H	 1.2960334868	-2.2341296911	 2.121333341	 0.123491
H	 0.7836067024	-0.3424276146	 3.2745683486	 0.12234
H	 0.3644629054	 1.1797635014	 2.4903106693	 0.124578
H	-0.8581228307	-0.1097925946	 2.6350222914	 0.090785
