14
0 0
O	-0.1788488108	 1.3170314716	 0.0107357445	-0.424598
C	 0.0340977104	-0.0185086532	 0.0027724788	 0.515323
C	 1.2236671052	-0.6617625671	-0.0070866071	-0.442122
C	 1.2956258594	-2.1261661843	-0.0145736864	 0.425642
O	 2.3571594988	-2.7417718672	-0.0248301502	-0.415348
C	-0.011163946	-2.7909995451	-0.0114970379	-0.442122
C	-1.1602824084	-2.0779956613	-0.0014934664	 0.515323
O	-2.425244353	-2.5564621975	 0.0027115538	-0.424598
N	-1.1511536275	-0.7072221694	 0.0057678926	-0.41373
H	 0.674497904	 1.7640280334	 0.0083503991	 0.316535
H	 2.1535726527	-0.10564663	-0.0095280387	 0.097576
H	-0.03201731	-3.8742937169	-0.017335397	 0.097576
H	-2.3894100372	-3.5191148296	-0.0025895178	 0.316535
H	-2.0229391777	-0.2016531136	 0.0131456626	 0.278009
