9
0 0
O	 0.0384810565	 0.0585432454	-0.0086274005	-0.244535
C	 0.1802786815	 1.2247007798	-0.1880788423	 0.187459
O	 0.7382723313	 2.0360607208	 0.7509978479	-0.165676
C	 0.8791179337	 3.4119290245	 0.4148853417	-0.213616
C	 2.1838852511	 3.6949937141	-0.196505233	 0.270547
N	 3.2039949241	 3.9252828146	-0.6857810682	-0.278048
H	-0.1250727689	 1.7713436103	-1.1008281029	 0.095331
H	 0.0843189461	 3.7410687921	-0.2660730888	 0.164573
H	 0.7818819146	 3.9748869983	 1.3461097861	 0.183965
