21
0 0
C	 0.0465630755	 1.2881055222	 0.6886377113	-0.389394
C	 0.0194535676	-0.141951718	 0.1316563733	-0.270029
C	-1.3598703352	-0.7882176846	 0.1296287296	 0.334253
C	-1.4443954822	-2.2577798531	 0.3348588838	-0.289108
N	-1.8681905559	-1.3268029011	 1.3990219359	-0.338182
C	-2.4253790468	-0.070838305	-0.7184652092	-0.200084
C	-2.0307338947	 0.0492715827	-2.2064533576	-0.399466
C	-3.7342556337	-0.7263276529	-0.6174088472	 0.291996
N	-4.7724216169	-1.2334737498	-0.6021288138	-0.339602
H	 1.0746694589	 1.6561074765	 0.7513448256	 0.121851
H	-0.5099727793	 1.985615195	 0.0547826075	 0.123959
H	-0.3880764216	 1.332761228	 1.6925971406	 0.127444
H	 0.4411710312	-0.1511855059	-0.8802550272	 0.11034
H	 0.6800707415	-0.7770794709	 0.7343887077	 0.09815
H	-2.2537222557	-2.8302195823	-0.1084386501	 0.141467
H	-0.512496384	-2.8036740627	 0.4572576441	 0.110458
H	-1.1514568974	-1.2646363529	 2.1184316258	 0.229557
H	-2.5546747014	 0.9382418074	-0.3069444043	 0.129922
H	-1.8338732694	-0.9377978834	-2.633806966	 0.138338
H	-2.8356057463	 0.5153850405	-2.779071117	 0.141058
H	-1.1335846642	 0.6622186603	-2.3198046729	 0.127073
