17
0 0
C	-0.0423919973	 1.4802143081	 0.0341410063	-0.314274
N	 0.0347886082	 0.0275988918	 0.0232839864	-0.048882
C	 0.8331482456	-0.4783313117	 1.1307384446	-0.322469
C	-1.2996241014	-0.5624527354	-0.0140163807	-0.309705
C	-1.293198445	-2.0005884142	-0.2555547131	 0.066926
C	-1.3263338502	-3.1925126287	-0.4498590792	 0.084862
C	-1.3215943258	-4.6118596734	-0.6880262108	 0.01762
O	-2.3151442008	-5.2906426812	-0.8144184457	-0.22958
H	 0.9678548972	 1.8976823268	-0.0012799581	 0.125278
H	-0.5866360609	 1.832627221	-0.8478771477	 0.121745
H	-0.5459745361	 1.8850449028	 0.9332811493	 0.095289
H	 0.4132928767	-0.2164213255	 2.1211854569	 0.093982
H	 0.9067989017	-1.5669914809	 1.0687553639	 0.132323
H	 1.8429447112	-0.0625827943	 1.0697889202	 0.124082
H	-1.8754509383	-0.371396023	 0.9162336195	 0.118646
H	-1.8662426158	-0.0815406623	-0.8217254099	 0.144712
H	-0.3066200388	-5.05505206	-0.7499662418	 0.099444
