20
0 0
C	-0.0284726923	 1.5267386485	-0.0824820009	-0.418092
C	 0.0499116378	 0.0106093402	-0.002933098	 0.134224
O	 0.6690844548	-0.450380166	-1.1874965756	-0.249985
C	 0.6854252062	-1.8659573063	-1.301988985	-0.067198
C	 1.4598800058	-2.5172732637	-0.1557353395	-0.208634
C	 0.8860209506	-2.0623451177	 1.1909854856	-0.228333
C	 0.8030975352	-0.5171398082	 1.2512713605	-0.164334
C	 2.139453927	 0.0752471926	 1.3627002855	 0.293585
N	 3.1955598845	 0.5344231462	 1.4637144342	-0.33984
H	 0.9731544945	 1.960123978	-0.1451002514	 0.15326
H	-0.5895950706	 1.8207722301	-0.9726899271	 0.129631
H	-0.5323533542	 1.9346281812	 0.7990575276	 0.11636
H	-0.9703009229	-0.4088848083	 0.064389033	 0.069398
H	-0.3494715864	-2.25011403	-1.3230457734	 0.085988
H	 1.1450877498	-2.0846267019	-2.2694683619	 0.11445
H	 1.4086320188	-3.6076755436	-0.244981287	 0.102614
H	 2.5150695299	-2.2304598234	-0.2260190268	 0.131507
H	-0.1322673497	-2.4519177726	 1.3132789929	 0.104801
H	 1.4805550761	-2.4427612218	 2.0261027098	 0.119833
H	 0.238087305	-0.2163680834	 2.1418194574	 0.120766
