18
0 0
C	-0.6464511535	 1.389786943	-0.05215872	-0.42605
C	 0.0234858816	 0.0163924381	-0.031808118	 0.007124
C	 1.3007229422	-0.1032231562	-0.8830591134	-0.246106
C	 2.0105962278	-1.3273670586	-0.2820600696	-0.06835
O	 1.4546588465	-1.529445125	 1.0254425343	-0.251586
C	 0.5580415336	-0.4898736451	 1.3362202545	 0.012669
C	 1.2352728835	 0.6261940917	 2.1260445789	 0.148766
O	 2.4215167222	 0.829218411	 2.1259991402	-0.246394
H	 0.0490420973	 2.1847940167	 0.2370542469	 0.129472
H	-1.0083890671	 1.6217419609	-1.0585398845	 0.12488
H	-1.5071549374	 1.4301061432	 0.6238224606	 0.120082
H	-0.6981780588	-0.736519998	-0.3709613953	 0.089544
H	 1.084835093	-0.2217982802	-1.9476652955	 0.105579
H	 1.9144603622	 0.7950061191	-0.7615892707	 0.120598
H	 1.8306699439	-2.2372822987	-0.8678163909	 0.099887
H	 3.0918717946	-1.179218986	-0.1969279023	 0.115795
H	-0.2493280043	-0.8991969311	 1.9586482365	 0.091429
H	 0.5370621627	 1.2695964651	 2.7116464582	 0.072661
