16
0 0
C	-0.4419321728	 1.5088994638	 0.0242844824	-0.397458
C	 0.1473456475	 0.1053363845	 0.0033797921	-0.206543
C	 1.0361528415	-0.2421533576	-1.1901200887	 0.381508
O	 0.9807057727	 0.2691731637	-2.2775081245	-0.302658
C	 2.0365502649	-1.3282475222	-0.7673617932	-0.329415
C	 2.0091098726	-1.3635942936	 0.773570585	-0.329421
C	 0.9956980559	-0.2950315667	 1.2096517984	 0.381413
O	 0.904219391	 0.1688314627	 2.3157283462	-0.302609
H	 0.3522589371	 2.2599785618	 0.0548099632	 0.131706
H	-1.0372129727	 1.6843855331	-0.8742511225	 0.13576
H	-1.0682991415	 1.6448754967	 0.9084175709	 0.135728
H	-0.6637583927	-0.6452034555	-0.0268660546	 0.135274
H	 1.7267844181	-2.2780606634	-1.216464275	 0.140057
H	 3.0175346005	-1.0906626206	-1.1862832919	 0.143366
H	 1.6814571483	-2.331995941	 1.1668949443	 0.140018
H	 2.9748087196	-1.1490673159	 1.2379041378	 0.143275
