19
0 0
C	-0.9871859313	 1.7445157132	 0.1650400466	-0.311148
N	-1.0652863066	 0.3494073798	 0.5477673461	-0.237291
C	-0.2478906551	-0.4496271897	 0.0057764429	 0.116448
N	-0.2638652475	-1.800791902	 0.3238535242	-0.35007
C	 0.5964196978	-2.7334253013	-0.2256239399	 0.429472
O	 1.444238179	-2.4333484722	-1.0423918242	-0.355623
C	 0.382904872	-4.1495628241	 0.2817272821	-0.32185
C	 1.3483180811	-5.1403148152	-0.3536495782	-0.071226
O	 1.0512587643	-6.4145316455	 0.1969633886	-0.424623
H	-0.2021647986	 1.9599680029	-0.5765960902	 0.103644
H	-1.9507597341	 2.0665557325	-0.246721616	 0.128422
H	-0.8023760023	 2.3590571253	 1.0538133959	 0.128423
H	 0.5200817451	-0.1941347444	-0.7297441258	 0.130961
H	-0.9565221307	-2.0886217714	 1.0002243768	 0.260481
H	 0.4992259572	-4.1699210995	 1.3725512273	 0.135767
H	-0.6498201421	-4.4602646848	 0.0799006948	 0.135583
H	 1.2242736963	-5.1262319621	-1.4452782686	 0.106662
H	 2.3819642353	-4.8332198772	-0.1428850677	 0.106805
H	 1.6531173204	-7.0549520541	-0.1928073046	 0.289162
