17
0 0
C	 0.3136807027	 1.5309092821	 0.1978696159	-0.228543
N	 1.1935735369	 0.4307865741	-0.2244766006	-0.314694
C	-0.2152919324	 0.1432876086	 0.093500083	-0.153695
C	-0.4537743015	-0.6914436812	 1.2925653874	 0.531655
C	 0.5163589835	-0.9913758792	 2.3882740487	-0.338942
C	-0.1550902174	-2.1353193814	 1.6495549121	-0.191878
C	-1.619966297	-2.1968227694	 2.0596679518	-0.090172
O	-1.8048923736	-0.7821349207	 1.7730839193	-0.332923
H	 0.5405375002	 1.9396291546	 1.1779257663	 0.125694
H	-0.0111086609	 2.2585152781	-0.5408073759	 0.114993
H	 1.3180858116	 0.4494030738	-1.2326853613	 0.236568
H	-0.894019843	-0.0580444848	-0.7331783529	 0.088072
H	 1.5576664521	-0.839607652	 2.1259259547	 0.137545
H	 0.2458312159	-0.7673154394	 3.4171795685	 0.106962
H	 0.3941954711	-2.8944648238	 1.1098733656	 0.101231
H	-2.2421995781	-2.8063426794	 1.3944098461	 0.105814
H	-1.84845227	-2.4404033897	 3.1044056413	 0.102314
