17
0 0
C	-0.0787370808	 1.5690390027	 0.0803722246	-0.476976
C	 0.0241019016	 0.0659349575	-0.0344348355	 0.406134
O	-1.1016310038	-0.6218165022	 0.4370194798	-0.462201
C	 0.6521123885	-0.6477401168	-1.1832381235	-0.121655
C	 1.6029217337	 0.1342416843	-2.0745625815	-0.111364
O	 2.6581558505	 0.6256059876	-1.2314717531	-0.231703
C	 2.6094585665	 0.0686894825	 0.023533975	 0.439059
O	 3.490200184	 0.2262666846	 0.8182092424	-0.34499
C	 1.3395740793	-0.7012294849	 0.1699213383	-0.278618
H	 0.8029227932	 2.0791010854	-0.3120559625	 0.150326
H	-0.961168996	 1.9220378937	-0.4625075014	 0.132449
H	-0.1877372867	 1.8625598919	 1.1310500336	 0.122349
H	-1.2194169169	-0.39888422	 1.3676053082	 0.287579
H	 0.1338759611	-1.5070251638	-1.5898890724	 0.117097
H	 2.0450069946	-0.5114419658	-2.8408227652	 0.126209
H	 1.1371556517	 0.9928652609	-2.5681280039	 0.124281
H	 1.3314172193	-1.5604000374	 0.8259917271	 0.122024
