25
0 0
C	 0.1365848089	 1.2922781848	 0.2374733279	-0.226541
O	 0.0140237855	-0.0974178813	 0.0665202018	-0.233106
C	 0.6875122327	-0.5749214007	-1.0809013599	-0.062698
C	 0.4555559378	-2.0844264429	-1.1899542607	-0.056736
C	-1.0309680216	-2.4032924982	-1.4044089032	-0.404757
C	 1.3634063832	-2.7197016421	-2.2450521426	 0.394498
C	 1.174704463	-2.267286351	-3.6836552065	-0.474871
C	 2.7685856591	-3.0733403366	-1.8130631358	-0.312328
C	 1.7449195977	-4.1644608891	-2.0240871729	-0.314929
H	 1.1885812747	 1.600563422	 0.350718911	 0.101096
H	-0.2911132061	 1.8498323624	-0.6115184984	 0.101349
H	-0.4085016344	 1.561754611	 1.1457673098	 0.124566
H	 0.3125005462	-0.0558399435	-1.9801291933	 0.081104
H	 1.7670201226	-0.3600102253	-1.0070360318	 0.084018
H	 0.7496160204	-2.5030736366	-0.2182992264	 0.076513
H	-1.200109862	-3.4841966975	-1.4300080964	 0.109876
H	-1.6282644333	-1.9755563421	-0.5960178144	 0.129062
H	-1.3993754262	-1.9835559657	-2.3470499207	 0.109164
H	 1.3697999565	-1.1958030231	-3.8043820043	 0.115853
H	 1.8630750316	-2.7999237846	-4.3471813128	 0.111608
H	 0.1577647951	-2.4630858525	-4.0400505269	 0.118813
H	 3.5701186874	-2.976342204	-2.538081893	 0.105458
H	 3.0650292489	-2.8468518838	-0.7938516775	 0.108559
H	 1.3527935639	-4.6697447543	-1.1474195951	 0.108512
H	 1.8522330984	-4.8057538553	-2.8928717083	 0.105915
