17
0 0
C	-0.2464681276	 1.529374878	-0.3447252395	-0.398912
C	-0.1260717984	 0.0049135804	-0.3053973893	-0.182754
C	 0.8807401667	-0.5583961115	-1.3506718428	-0.185951
C	 2.2896649851	-0.1057908883	-0.975597287	 0.167711
O	 2.8772968038	 0.7852687953	-1.5281123479	-0.24871
C	 0.8252686575	-2.0815227896	-1.3228803222	 0.230537
O	 1.1470347766	-2.7108643936	-0.3359356591	-0.303777
C	 0.3657192679	-2.7289122799	-2.5350302404	 0.259629
C	-0.0250986409	-3.2421015921	-3.5516997182	-0.410709
H	 0.7118989419	 2.019687503	-0.1516948483	 0.138633
H	-0.6007648765	 1.8727519795	-1.3220811878	 0.125562
H	-0.9598775539	 1.8721329533	 0.410459982	 0.12249
H	 0.1831279081	-0.3401752034	 0.6871414577	 0.12938
H	-1.1040293768	-0.4507636211	-0.4981450329	 0.116807
H	 0.6458133029	-0.171963738	-2.3454534931	 0.108401
H	 2.7234177658	-0.6593832853	-0.115960607	 0.109497
H	-0.365740422	-3.7120308869	-4.442687314	 0.222165
