21
0 0
C	-0.4626989029	 1.4462617513	-0.0604703771	-0.428524
C	 0.1948844064	 0.0755536207	 0.0064362887	 0.44337
C	-0.6683980387	-0.9575503772	 0.7146711139	-0.439445
C	 0.8686314921	-0.405037008	-1.3070343326	-0.355024
C	 2.1942282211	-0.2661221317	-0.5256568636	 0.106381
O	 1.5062839185	 0.1762886414	 0.6567027456	-0.335032
C	 2.9898584544	-1.531015592	-0.313672009	 0.056451
C	 3.3052005873	-2.0246873748	 1.0311161439	-0.170943
O	 2.2878485694	-2.6468414168	 0.2359699411	-0.23228
H	 0.1904774421	 2.1693935165	-0.5575521701	 0.114144
H	-1.4073369307	 1.3953451524	-0.612870225	 0.114711
H	-0.6757772009	 1.8150600217	 0.948047017	 0.122819
H	-1.6084749819	-1.1112323079	 0.1731650435	 0.10912
H	-0.1334046708	-1.9075262865	 0.7796617617	 0.144357
H	-0.910158699	-0.6207366965	 1.7283863819	 0.115652
H	 0.6202413646	-1.4256799957	-1.6012569024	 0.119577
H	 0.7549457856	 0.2654039897	-2.1602774112	 0.103161
H	 2.8734892119	 0.5099003367	-0.9073389592	 0.073152
H	 3.6611430583	-1.7860159399	-1.1364582668	 0.090787
H	 4.2001979616	-2.623150089	 1.1926860283	 0.112402
H	 2.9351810415	-1.4632237943	 1.8845486015	 0.135164
