15
0 0
N	 0.2993755618	-1.1973844399	-0.0014096776	-0.354661
C	 0.1969348938	-0.0442544173	 0.0108115911	 0.314321
C	 0.0657737765	 1.381526386	 0.0327790268	-0.246311
C	 0.4155044248	 2.2129823019	 1.2765686566	-0.100833
C	 1.2868989711	 1.5709399262	 2.3446190697	-0.254619
C	 2.5470618049	 1.1117757763	 1.5692294994	-0.098448
O	 2.5440069165	 1.8029157091	 0.3056588397	-0.248403
C	 1.2819137706	 2.3209772927	 0.0684275102	 0.112673
H	-0.7785470512	 1.7512788343	-0.5408257143	 0.135777
H	-0.2885937279	 2.9846587684	 1.5624400649	 0.109722
H	 1.5318968652	 2.326815912	 3.0963348137	 0.119232
H	 0.8042989594	 0.7327273236	 2.8539766776	 0.131326
H	 3.4801225157	 1.36430968	 2.0801210893	 0.116631
H	 2.5278640675	 0.0340230301	 1.3878394611	 0.142395
H	 1.2925397712	 3.1632959766	-0.6132923081	 0.121198
