19
0 0
C	 0.110272511	 1.424799416	-0.0186501926	-0.241942
C	 1.343918179	 0.6157203908	 0.0191957414	-0.088121
N	-0.0353914353	-0.037063935	 0.0853451346	-0.131027
C	 0.2048794306	-0.5539534785	-1.3088467561	-0.2583
C	 1.6506233334	 0.0031795054	-1.335882925	 0.394228
C	 2.2432424965	 0.7749857521	-2.567362634	-0.316449
C	 3.3626801934	-0.2678610058	-2.6311416559	-0.036518
N	 4.0475197643	-0.2118605055	-1.3160714855	-0.338242
C	 2.7980262329	-1.0015679622	-1.4667696751	-0.143291
H	-0.1759601009	 1.9445158606	 0.8907639171	 0.120315
H	-0.1901970859	 1.9231327666	-0.9392554053	 0.107414
H	 2.0233088972	 0.6176210315	 0.8648612352	 0.100002
H	 0.1539259755	-1.6458501252	-1.3219965923	 0.11016
H	-0.4954486837	-0.1549133513	-2.0518623026	 0.098897
H	 1.5700044178	 0.736528955	-3.4278706543	 0.101839
H	 2.5650039876	 1.8050291416	-2.3927273868	 0.107143
H	 3.87707648	-0.6428735187	-3.5070022352	 0.093944
H	 4.8219496428	-0.8748839718	-1.352604761	 0.228172
H	 2.7756303139	-2.0605996255	-1.2360137468	 0.091776
