17
0 0
N	-0.1651010471	 1.4783106894	 0.2068486469	-0.576024
C	-0.0072159162	 0.0562773319	 0.0671273299	 0.135138
C	 0.9649854959	-0.5498408877	-1.0035062301	-0.128931
O	 1.7225662558	-1.2080196576	 0.0564281613	-0.257635
C	 0.9626887806	-0.6168634011	 1.0440869202	 0.40649
N	 1.0680420179	-0.648232515	 2.2909372553	-0.533038
C	-1.369504426	-0.6175981108	 0.0671775092	 0.073208
C	-2.5031233575	-0.0752123839	 0.8164932205	-0.177586
O	-2.4103738042	 0.0868723614	-0.611001114	-0.255309
H	 0.7185496073	 1.9689663651	 0.1450249157	 0.237122
H	-0.7987022829	 1.8253443291	-0.5060226851	 0.247577
H	 0.5543463658	-1.2780584358	-1.7073441907	 0.121032
H	 1.5805920385	 0.1871698016	-1.526776107	 0.112858
H	 1.8675402753	-1.2122432318	 2.5855525968	 0.230635
H	-1.3419549388	-1.6889453707	-0.1333147967	 0.099568
H	-3.2899864891	-0.7483056403	 1.1506950896	 0.120269
H	-2.3623866454	 0.8338871962	 1.3928201584	 0.144628
