15
0 0
N	 0.061964074	 1.3666035859	 0.155697741	-0.601177
C	-0.0217470371	-0.0046918094	 0.0326899494	 0.331521
C	-1.1403155797	-0.8511688389	-0.0206740042	 0.036317
C	-2.5310854768	-0.5227021638	 0.0024626254	 0.044781
O	-3.4436475314	-1.3392621601	 0.0068393982	-0.333073
C	-0.5696542126	-2.17416755	-0.0563068937	 0.347027
N	-1.3039513882	-3.3201199967	-0.1735238515	-0.589164
N	 0.7505584632	-2.1558721298	-0.0193704712	-0.333041
N	 1.0551816029	-0.8016017509	 0.0283152505	-0.270182
H	 0.8816462644	 1.7898435819	-0.2567299317	 0.259149
H	-0.7788324702	 1.8564283456	-0.1127646796	 0.26928
H	-2.7699295693	 0.5668696593	 0.0274230579	 0.042202
H	-2.2834192066	-3.2093751047	 0.049018811	 0.273648
H	-0.8553589112	-4.1735571922	 0.1182210562	 0.253017
H	 2.0191451185	-0.5325551762	 0.1195897323	 0.269696
