20
0 0
C	-0.0346939631	 1.5541096671	 0.013482631	-0.383328
C	 0.0216914346	 0.0243635275	-0.0159447897	-0.194069
C	 0.7191394447	-0.5256616419	-1.2546207675	 0.129795
C	 0.8297800454	-2.0513307563	-1.2489003837	-0.092689
O	 1.4058063379	-2.5307960861	-2.4538339778	-0.252344
C	 0.6583852593	-2.1046381084	-3.5814008367	-0.077695
C	 0.551886262	-0.5841183185	-3.604222053	-0.077556
O	-0.0251175202	-0.1093582092	-2.3991502118	-0.265314
H	 0.9720617868	 1.9859471128	 0.0327643006	 0.111238
H	-0.5463690799	 1.9355253557	-0.8733338502	 0.136155
H	-0.5679959829	 1.9105053907	 0.8997377556	 0.109793
H	 0.5478742345	-0.3517282791	 0.8704197323	 0.096207
H	-0.9942373044	-0.3876316808	 0.0195204881	 0.104448
H	 1.7407966252	-0.1105977496	-1.3250171908	 0.065825
H	 1.4787768977	-2.3914569886	-0.4361323833	 0.106135
H	-0.173896819	-2.4865962861	-1.1053701965	 0.087759
H	 1.1805796956	-2.476638008	-4.4683204573	 0.106207
H	-0.3532941324	-2.5428802282	-3.5570621591	 0.091491
H	 1.554761842	-0.1485184338	-3.745004323	 0.092786
H	-0.0942364838	-0.2470734992	-4.4210565972	 0.105156
