13
0 0
N	-0.0429232424	 1.2844918345	 0.0234554267	-0.56398
C	 0.058175709	-0.0526417186	-0.0220395704	 0.547422
O	 1.0970647645	-0.7023007684	-0.0713434998	-0.422626
N	-1.1750627071	-0.7185931284	-0.0086351443	-0.140201
N	-2.4047197334	-0.0944432753	 0.0455755591	-0.28147
C	-3.2188874518	-1.1263402869	 0.035938745	 0.055999
N	-2.6403968933	-2.3659825834	-0.0196666312	-0.357609
C	-1.3614880693	-2.0828333867	-0.0467669443	 0.506263
O	-0.3572901724	-2.9303027432	-0.1020842387	-0.397315
H	 0.7990011009	 1.832752834	 0.0171077817	 0.283631
H	-0.9537038338	 1.7138742565	 0.0620563516	 0.295705
H	-4.2903925943	-0.9932325166	 0.0702540784	 0.141324
H	 0.4646988034	-2.3842603474	-0.1081646439	 0.332855
