19
0 0
C	-0.2485935236	 1.5984789099	-0.1090886834	-0.434872
C	 0.112133005	 0.1267556451	-0.0226483774	-0.068471
C	 1.434516716	-0.564660446	-0.3393125049	-0.139174
C	 2.7735909887	 0.1067279203	 0.0261946902	 0.055165
C	 3.2428969083	-0.7326402569	 1.2506116374	-0.222537
C	 2.0187356	 0.0309362414	 1.8223699563	-0.005459
O	 2.3859573793	 1.1534924507	 0.9711535893	-0.282814
C	 0.8460996635	-0.6332478824	 1.0579285164	 0.353093
O	 0.3465850587	-1.826376778	 1.5803390592	-0.4683
H	-0.4707991949	 1.8662520785	-1.1485595396	 0.111622
H	-1.1546843977	 1.7969644536	 0.4757561343	 0.105649
H	 0.5483420541	 2.2418033947	 0.2533260834	 0.150399
H	-0.6965608006	-0.5089246084	-0.3862956906	 0.090271
H	 1.4400905704	-1.4247068797	-0.9990628463	 0.096351
H	 3.4411047758	 0.4479284916	-0.7647888145	 0.082467
H	 3.1987954281	-1.8225343303	 1.19407838	 0.109698
H	 4.1880709223	-0.3769289375	 1.6646906563	 0.104957
H	 1.8928832633	 0.2820442119	 2.8761463945	 0.076975
H	-0.3658680665	-1.6094294387	 2.1913265493	 0.284977
