15
0 0
C	 0.0696510728	 1.501056863	 0.0313482335	-0.472395
C	-0.0416068711	 0.0111951239	 0.0020172091	 0.3872
C	-1.1741323635	-0.7069606498	-0.1510500104	-0.326547
C	-1.1918585324	-2.1649293257	-0.1681582968	 0.345205
O	-2.1955367297	-2.846177705	-0.3043034424	-0.37064
C	 0.1582459284	-2.7480412084	-0.0002543272	 0.160619
O	 0.2145647973	-4.1003292593	-0.0067038067	-0.4055
C	 1.231506794	-1.9448043084	 0.1460856992	-0.076476
O	 1.1637885162	-0.5853342642	 0.1511423462	-0.222329
H	 0.7275062956	 1.8541590564	-0.7699050655	 0.148189
H	-0.9122926805	 1.959565318	-0.0906697331	 0.144348
H	 0.5018997296	 1.8365101987	 0.9800743057	 0.148188
H	-2.1221076352	-0.1965509271	-0.2678557707	 0.117072
H	 1.1265337216	-4.3911459374	 0.1077564651	 0.299574
H	 2.2508073068	-2.2900934147	 0.273844794	 0.123491
