16
0 0
O	 0.173993518	 1.4280457647	 0.1192697909	-0.458132
C	 0.0258458975	 0.0667423382	 0.0345890339	 0.318888
C	 0.4919287446	-0.7711912308	-1.1849996462	-0.318003
C	-0.5036245516	-1.8207470612	-0.6989400037	-0.084976
N	-0.5230624481	-1.8547668149	 0.8023448758	-0.179769
C	 0.4545001497	-0.7949293657	 1.2197593914	-0.182706
C	-1.3250448866	-0.8294688162	 0.0501274015	 0.250874
C	-2.7021884846	-0.5563555125	 0.1709012281	-0.01254
C	-3.867601256	-0.265954853	 0.2587907547	-0.360884
H	-0.0707787691	 1.8278783733	-0.7224198616	 0.291201
H	 0.1579779463	-0.3367719428	-2.1325891455	 0.105603
H	 1.5552591946	-1.026654591	-1.2418363271	 0.105618
H	-0.8399599166	-2.7169720756	-1.2027203614	 0.11572
H	 1.5005599961	-1.1174992513	 1.2691350908	 0.101748
H	 0.1344337537	-0.3859313295	 2.1801664956	 0.125203
H	-4.8975985979	-0.0234536816	 0.3451418027	 0.182154
