21
0 0
C	-0.1661691218	 0.8180181622	-2.0142765539	-0.407798
C	-0.0144871005	-0.3584152373	-1.0724750832	-0.106424
C	 1.299864062	-0.6551496616	-0.337307218	-0.124366
C	 2.5368822229	 0.2021431473	-0.4981744335	-0.405636
C	 0.104301962	-0.1427897515	 0.403827733	 0.450907
O	 0.1151362362	 1.1863831981	 0.9700882236	-0.315985
C	-0.5027159997	 0.6734529681	 2.1579455143	 0.101927
C	-1.8587798366	 0.1140779826	 1.8652835607	-0.300804
C	-0.6188085229	-0.7218613289	 1.5937737392	-0.221368
H	 0.2685385627	 1.7275119469	-1.5947250783	 0.13552
H	 0.3117850748	 0.621244774	-2.9802158878	 0.112821
H	-1.2254069494	 1.0228175182	-2.2029584354	 0.11638
H	-0.5757524812	-1.2428731066	-1.3668757431	 0.082426
H	 1.5042066722	-1.7151465455	-0.1975190096	 0.081519
H	 2.2964389054	 1.2661231499	-0.4521143877	 0.135277
H	 3.2509486679	-0.0033165467	 0.3064610014	 0.116242
H	 3.0405478014	 0.0021693241	-1.4500868994	 0.113565
H	-0.1589745732	 1.0588617723	 3.1101532041	 0.105044
H	-2.4327014933	-0.1959233097	 2.7335148747	 0.112691
H	-2.440843856	 0.5207431412	 1.0433587003	 0.117468
H	-0.4321831626	-1.6872291472	 2.0442969084	 0.100594
