18
0 0
C	-0.0435876751	 1.5520422081	 0.0251719393	-0.39906
C	 0.0081131936	 0.0223326019	 0.0351874557	 0.040799
N	 0.7130514648	-0.4991189694	-1.139513011	-0.325952
C	 1.8875953376	-1.2003338756	-1.0680729451	 0.421763
O	 2.5126903614	-1.5880104014	-2.0333326537	-0.379209
C	 2.2857201475	-1.4577085651	 0.3871116659	-0.027803
C	 1.06828257	-2.0154751029	 1.1542170747	-0.266274
C	 0.7451785286	-0.5116611567	 1.270757783	 0.088463
O	 2.1591027115	-0.2017969966	 1.1188801456	-0.290348
H	 0.9679249916	 1.9568983595	 0.1122433039	 0.147009
H	-0.4898636019	 1.9224962775	-0.9031217805	 0.115124
H	-0.6483967275	 1.9236503454	 0.8587848861	 0.117991
H	-1.016055694	-0.3792968546	 0.0495401216	 0.086788
H	 0.4091224436	-0.2265119096	-2.0629893439	 0.246279
H	 3.2722013337	-1.913567076	 0.4603956888	 0.10256
H	 0.3701378898	-2.6687157093	 0.6275752018	 0.116835
H	 1.3545753102	-2.44395092	 2.115527147	 0.119574
H	 0.3216615148	-0.115013315	 2.1966755709	 0.085463
