21
0 0
C	-0.0065202321	 1.5741520946	 0.1054865875	-0.38919
C	-0.0242118947	 0.0481239578	-0.0067646388	-0.187714
C	 0.7321167957	-0.4674267191	-1.2337280192	 0.127386
O	 2.1022738555	-0.0937767397	-1.2170249502	-0.423216
C	 0.5843145033	-2.005487436	-1.3894598196	-0.091074
O	-0.7918296027	-2.3867567116	-1.4333567246	-0.41823
C	 1.3213299812	-2.5071751332	-2.5481478869	 0.037902
C	 1.871535304	-2.9115613875	-3.54042049	 0.099438
C	 2.5580799669	-3.3998864008	-4.727162101	-0.500653
H	 1.0196314522	 1.9518266224	 0.1088591997	 0.124694
H	-0.5261702028	 2.0362526294	-0.7412548197	 0.113809
H	-0.5007711289	 1.9088495151	 1.022381292	 0.109672
H	 0.4294791358	-0.3992438012	 0.8912755691	 0.079689
H	-1.0502290023	-0.3290280491	-0.0498329233	 0.118255
H	 0.3247222834	-0.0015864421	-2.1405090414	 0.08403
H	 2.4938393607	-0.4462327373	-0.4094714749	 0.278489
H	 0.9788021705	-2.4706589933	-0.4737376535	 0.098479
H	-1.0785743614	-2.3020299272	-2.3490588988	 0.285356
H	 2.8770028153	-4.4407727232	-4.6050109766	 0.149891
H	 1.9095187002	-3.3528434721	-5.6088889325	 0.148453
H	 3.4493733902	-2.7997449458	-4.9404227374	 0.154534
