18
0 0
O	 0.7225542835	 0.4100816122	-1.0828658043	-0.426842
C	 0.171496651	-0.4107729221	-0.0875213773	 0.065567
C	 0.2408517758	 0.010742361	 1.4084655495	-0.284066
C	-1.215532884	-0.5372232937	 1.6041394154	-0.237887
C	-2.1423183672	 0.2315234684	 2.406374456	 0.316431
C	-2.9114373991	 0.8913779565	 3.0544551602	-0.448857
C	-1.3529613447	-0.5039087031	 0.0639314093	 0.301639
C	-2.3375049911	 0.2431425639	-0.7450336495	-0.308233
N	-2.3242866419	-1.2362348312	-0.723449044	-0.373405
H	 0.3752435528	 1.3000072368	-0.9554440308	 0.281002
H	 0.6163572888	-1.4001066178	-0.2425365783	 0.099071
H	 1.0257284693	-0.4269189747	 2.0264849866	 0.114709
H	 0.2632441227	 1.0990653143	 1.5110178276	 0.110376
H	-1.1908823807	-1.5775463945	 1.9465568939	 0.112719
H	-3.5909768125	 1.4626278136	 3.6368365425	 0.19533
H	-3.1953057438	 0.6995828728	-0.2600995205	 0.134064
H	-1.9768915104	 0.7497687677	-1.6372063497	 0.112764
H	-1.8867856084	-1.59413772	-1.5706907068	 0.23562
