18
0 0
C	-0.1135461141	 1.6014944249	-0.165202339	-0.408191
C	 0.051441842	 0.0937091617	-0.0180294532	-0.052984
C	 1.1644626331	-0.6370978834	-0.8472473629	-0.249938
C	 1.7426222321	-1.22695177	 0.4423564016	-0.070543
C	 2.1427521519	-0.1615109346	 1.3934092563	-0.325509
C	 0.6642136395	-0.4605023396	 1.2803868827	 0.25265
C	-0.0774258212	-1.036201347	 2.410366215	 0.05165
O	 0.4270701259	-1.5307282394	 3.3940029269	-0.277136
H	 0.82761218	 2.1319334263	 0.0122013608	 0.117558
H	-0.4541050822	 1.8596376576	-1.1738251116	 0.117873
H	-0.8520910097	 1.9872355211	 0.5460398481	 0.119622
H	-0.9117901942	-0.3969321922	-0.1971672528	 0.079527
H	 0.762795829	-1.3837889637	-1.5343530878	 0.110167
H	 1.8501770854	 0.0136062724	-1.4005925164	 0.102856
H	 2.0228569926	-2.2617061725	 0.5960593285	 0.110542
H	 2.5718557659	-0.5003835133	 2.3300319851	 0.144983
H	 2.5218266453	 0.7886104888	 1.0261735434	 0.114268
H	-1.1858694114	-1.0126993571	 2.2887699354	 0.062604
