14
0 0
C	-0.0999421046	 1.3727730879	 0.0189957067	-0.243683
O	-0.0536995852	-0.0559069456	-0.0155159893	-0.253389
C	-1.2132712873	-0.6981873055	-0.0167728706	 0.507759
N	-1.351554635	-1.9849099696	-0.0509411997	-0.405322
C	-2.731413479	-2.1636676537	-0.0318276119	 0.281355
N	-3.2472821933	-3.4490593576	-0.1247665591	-0.596079
C	-3.3536972772	-0.9585849958	 0.0178656898	-0.14602
O	-2.3475552027	 0.0153078157	 0.0253987668	-0.199685
H	 0.9401983497	 1.6975998748	 0.0127047309	 0.144325
H	-0.6222181135	 1.7692384319	-0.8566787584	 0.140758
H	-0.5984259117	 1.7272737337	 0.9259834781	 0.139736
H	-2.5871687119	-4.1386835693	 0.2083018822	 0.256192
H	-4.1518704098	-3.5666850123	 0.3089093	 0.246944
H	-4.3663350785	-0.6021542547	 0.0371960145	 0.12711
