19
0 0
C	 0.0598407367	 0.5539214327	-0.5709888932	-0.242144
O	-0.4715945651	-0.2094480163	 0.4958685781	-0.229711
C	 0.4765791911	-0.5375026758	 1.4723452933	 0.081804
C	-0.1203828355	-1.4364920439	 2.5830607167	-0.28818
C	 0.8832411979	-2.5705931377	 2.2259147602	 0.070325
O	 0.3522988653	-3.6934986559	 1.5468097268	-0.252753
C	 0.183007608	-3.303195575	 0.2007661812	 0.011089
O	 1.2204975567	-2.3846089528	-0.0978648635	-0.249995
C	 1.492466219	-1.6852193987	 1.0966929393	 0.06125
H	 0.8232268769	-0.0045472534	-1.1259720194	 0.127986
H	-0.7707597403	 0.7875952356	-1.2411877298	 0.126557
H	 0.4978782124	 1.4965578926	-0.2072988401	 0.102062
H	 0.9844707849	 0.3663272916	 1.8434681379	 0.06137
H	-0.0232729503	-1.0429437162	 3.5969565398	 0.107236
H	-1.1637175518	-1.7015813983	 2.4001059738	 0.120245
H	 1.5252434926	-2.931922479	 3.0299471163	 0.087912
H	 0.2906947629	-4.1826126412	-0.440153718	 0.118336
H	-0.7966979919	-2.8260384591	 0.0484530988	 0.104312
H	 2.5537546204	-1.4314005789	 1.1221418719	 0.0823
