17
0 0
O	 0.0875934453	 0.0609078372	-0.3684346106	-0.289418
C	 0.064849094	 1.2195724058	-0.0584705751	 0.352121
C	-1.1344352381	 1.9995791518	 0.4808363506	-0.180402
O	-0.6784237449	 3.3094062122	 0.7545782124	-0.277942
C	 0.5334726891	 3.5818106385	 0.0268063606	 0.073491
C	 1.4830241682	 4.3489970754	 0.9395542618	-0.245109
C	 2.034086563	 3.2172696501	 1.8125394724	-0.072596
O	 2.1058364444	 2.066918127	 0.960030585	-0.274599
C	 1.2255583342	 2.229511135	-0.1534730714	 0.00491
H	-1.934855552	 1.9890572354	-0.2764615815	 0.125861
H	-1.5292642435	 1.5469413597	 1.3964854566	 0.142769
H	 0.3037050479	 4.0896541054	-0.9179539391	 0.081371
H	 2.2767526568	 4.812711215	 0.34542154	 0.112281
H	 0.9648802066	 5.1240613888	 1.5076053719	 0.122888
H	 3.0392669903	 3.4085273787	 2.1979384847	 0.114631
H	 1.3650743593	 3.0182717067	 2.659626095	 0.109774
H	 1.7838654096	 2.1036422171	-1.0862124833	 0.09997
