16
0 0
C	-0.0015435928	 1.5296105008	-0.0776902181	-0.385433
C	-0.0200727937	-0.0118557206	 0.0721948756	-0.275392
C	 0.7200569733	-0.4334891588	 1.2616046052	 0.331484
C	 1.3318089632	-0.7511500693	 2.2459562629	-0.465628
C	-1.4326989857	-0.5416927247	 0.0863776998	 0.317489
N	-2.1560652538	-0.6062612953	-1.0351085167	-0.276839
N	-3.3232137413	-1.0775490214	-0.6169639528	-0.073778
N	-3.4327348071	-1.3345446661	 0.6777166211	-0.199816
C	-2.2319068367	-0.9970876203	 1.1503823098	-0.119893
H	 1.0274007463	 1.8935751153	-0.1348409393	 0.126485
H	-0.5337835274	 1.8158627687	-0.9879333077	 0.134394
H	-0.4899121352	 2.0027098344	 0.7782736718	 0.129805
H	 0.4758521067	-0.4358460376	-0.8102620806	 0.129091
H	 1.8785663398	-1.0437446133	 3.1080630652	 0.199185
H	-4.0829247082	-1.2474765067	-1.2561156643	 0.293345
H	-1.9903873273	-1.0978953354	 2.1953783382	 0.135502
