18
0 0
C	 0.7088654047	-0.0707920986	-1.2774934272	-0.266373
O	 0.0196214555	 0.0362474666	-0.0376544975	-0.28074
C	 0.5813217208	-0.6553482069	 1.0237551515	 0.265427
C	-0.3963048026	-0.8520462343	 2.2063334961	-0.130058
O	 0.0042705266	-2.2389816429	 2.3319538259	-0.284015
C	 0.5658750475	-2.2146891168	 0.9962659625	-0.14626
C	 1.9346826581	-0.0677539592	 1.4901334647	 0.349053
N	 2.5136203	-0.7428359323	 2.5246199295	-0.527973
O	 2.4325347575	 0.91233537	 0.9739675603	-0.37106
H	 0.7973797837	-1.120765575	-1.5944246509	 0.100928
H	 0.1011910913	 0.462110003	-2.0115598462	 0.13045
H	 1.7014623149	 0.3825509242	-1.2227308683	 0.149926
H	-0.2272314396	-0.2853751809	 3.1255193234	 0.119219
H	-1.4376555245	-0.7524135645	 1.8782201765	 0.12229
H	-0.1430233389	-2.601519548	 0.2532288549	 0.11527
H	 1.5145812894	-2.7541783649	 0.9380797992	 0.118341
H	 2.0228867158	-1.4815587508	 3.0049509896	 0.273377
H	 3.3510601497	-0.3553208986	 2.9276964262	 0.262197
