15
0 0
O	 0.185062151	 1.3443114352	 0.053043565	-0.413626
C	-0.0035985921	-0.0476490768	 0.2221515435	-0.0593
C	-1.3112961215	-0.5396491303	-0.4148928912	-0.254808
C	-1.456703034	-2.0348559809	-0.3104991546	 0.069033
O	-1.7773895632	-2.5750525212	 0.9754550683	-0.231037
C	-2.7470035274	-2.7178621198	-0.0622625011	-0.104418
C	-3.9752635457	-1.9664611074	 0.0873639934	 0.304605
N	-4.9658177492	-1.3796276645	 0.1891795406	-0.326127
H	-0.4845159534	 1.8014992768	 0.5720204517	 0.287349
H	 0.853228544	-0.5255368074	-0.2660942547	 0.114532
H	 0.0206633188	-0.3394009185	 1.282298229	 0.111839
H	-2.1656903612	-0.0542160844	 0.0699219854	 0.121665
H	-1.3240524939	-0.2483746578	-1.4716882599	 0.1246
H	-0.7145629195	-2.6242448662	-0.8524536785	 0.113366
H	-2.8891462626	-3.7330981566	-0.4282069469	 0.142326
