13
0 0
O	-0.0224453283	 1.3171416539	 0.0093001759	-0.247445
N	 1.2919796523	 1.83462873	-0.0007239451	-0.112486
C	 2.1003977678	 0.8150408201	-0.013482538	-0.086851
C	 1.3924034003	-0.4299845867	-0.0134998421	 0.104434
C	 0.054860377	-0.0240585753	 0.0014530177	 0.443538
C	-0.9824049498	-0.9492171266	 0.0064450714	-0.283466
C	-0.5773877839	-2.2775348228	-0.0045085754	 0.029025
N	 0.702538278	-2.7058592603	-0.0190454244	-0.28267
C	 1.6721127116	-1.8003646561	-0.0235189465	-0.089471
H	 3.1662127363	 0.9957807277	-0.0226706916	 0.150508
H	-2.0259154246	-0.6627883307	 0.0179439651	 0.127694
H	-1.3289432023	-3.0623203182	-0.0015026284	 0.123129
H	 2.6942898655	-2.170767265	-0.0352015985	 0.12406
