16
0 0
O	 0.0346205904	-0.0043699882	 0.035497883	-0.317245
C	-0.0092078484	 1.1836208967	 0.0354698503	 0.478912
C	-1.0813627932	 2.2964764308	 0.0277981083	-0.156507
C	-0.8075696619	 2.9975065951	 1.371477435	-0.079977
C	-0.0938930274	 4.2918276812	 1.0672965185	-0.085054
C	-0.1437880564	 4.4577475323	-0.4402397243	-0.186722
N	-0.1039191207	 3.043997162	-0.8633757559	-0.13744
C	 0.9758580261	 2.3723683529	-0.031883042	-0.156508
C	 0.729433179	 3.0541436114	 1.3269090146	-0.079975
H	-2.1033459993	 2.1597106915	-0.318969059	 0.093225
H	-1.3744446919	 2.810961824	 2.2717589461	 0.103422
H	-0.1039455475	 5.1162860731	 1.7679519758	 0.098407
H	-1.0638172495	 4.9282471249	-0.7995639239	 0.114406
H	 0.7167476567	 4.9939256882	-0.8512459525	 0.114403
H	 1.983345271	 2.3104722823	-0.4375201595	 0.093227
H	 1.359629003	 2.9116915218	 2.1924806251	 0.103425
