20
0 0
C	-0.1394097026	 1.3363013143	 0.030972761	-0.249203
O	-0.0690428288	-0.0839556805	 0.0506488135	-0.192415
C	 0.5384863716	-0.6504021444	-1.0104222362	 0.127443
N	 0.6459011415	-1.9005157467	-1.0983220338	-0.215437
C	 1.3154387285	-2.4327055033	-2.2702117292	-0.157396
C	 2.4981428923	-3.3066513989	-1.8480597374	-0.285422
C	 3.1781689195	-4.0088764642	-3.0132649644	 0.377466
C	 4.3872465441	-4.8623942514	-2.6703232704	-0.471964
O	 2.7786993158	-3.8955319216	-4.1505769432	-0.293675
H	 0.8596118215	 1.789074215	 0.0128866686	 0.126126
H	-0.7154224731	 1.6987734355	-0.8291778117	 0.128461
H	-0.6474000643	 1.6314632833	 0.9497484298	 0.146788
H	 0.911805917	 0.0663902071	-1.759854436	 0.073427
H	 0.6082485459	-3.0538742315	-2.8308155162	 0.123546
H	 1.6624123644	-1.6493697826	-2.9634572897	 0.092786
H	 3.2467209543	-2.7113734323	-1.3076922758	 0.1165
H	 2.1620590263	-4.0627734727	-1.1263320696	 0.135135
H	 5.1694158478	-4.2464660038	-2.2122195935	 0.13741
H	 4.1184669481	-5.6297965531	-1.9359469735	 0.138835
H	 4.7753886002	-5.3353829881	-3.5731271122	 0.141589
