19
0 0
C	-0.1064136628	 1.5358428861	-0.0010254855	-0.422355
C	 0.0578591779	 0.0350088824	 0.0389042424	-0.043189
C	 1.3557282715	-0.6993576835	-0.2424989243	-0.139918
C	 2.6277720062	 0.0634092042	-0.1170742974	-0.072303
C	 2.8252005196	 0.5166619157	 1.1231956359	-0.079738
C	 1.7273377594	 0.0873623209	 2.0697751238	-0.340856
C	 0.7511781922	-0.7043393207	 1.1786390858	 0.142279
C	 0.1222191674	-1.8662287884	 1.7284069918	 0.179768
C	-0.402176523	-2.8365328398	 2.2111688004	-0.398224
H	 0.8115409765	 2.0578983711	 0.2764331864	 0.126639
H	-0.3826367	 1.8612358904	-1.010010098	 0.118502
H	-0.9022362341	 1.8560865368	 0.6802364118	 0.120935
H	-0.813787147	-0.5068942409	-0.3189245862	 0.09569
H	 1.3140384364	-1.5858317967	-0.8658744266	 0.097925
H	 3.2864652165	 0.2366641276	-0.960567866	 0.098178
H	 3.6545882537	 1.1381379281	 1.441719261	 0.097131
H	 2.1104048035	-0.5493514239	 2.8759140589	 0.12186
H	 1.2398310178	 0.9422580446	 2.5563663705	 0.114786
H	-0.8654043417	-3.6939109941	 2.6318327652	 0.182889
