17
0 0
C	-0.2094525397	 1.3455236212	-0.2043224876	-0.25207
O	-0.2477115235	-0.0699493135	-0.3467925564	-0.225226
C	 0.8067771595	-0.6051144857	-1.0587446362	 0.239132
C	 0.7300827923	-2.12320937	-0.9733873295	-0.275745
C	 1.2686660734	-2.7058445292	-2.2651470081	-0.083103
O	 0.4783134154	-2.2219304633	-3.3599000475	-0.239139
C	 0.2880791287	-0.8891367119	-3.4562012888	 0.458716
O	-0.227738796	-0.3949367041	-4.4106848842	-0.357714
O	 0.7738060202	-0.1398877426	-2.4329653926	-0.271687
H	 0.72250229	 1.6667469995	 0.2823421786	 0.112649
H	-0.2984687368	 1.8440118955	-1.1743774619	 0.14775
H	-1.0564495629	 1.6172323665	 0.4274642895	 0.137151
H	 1.7674639127	-0.2140397849	-0.6936688502	 0.086231
H	 1.2894330199	-2.4800218514	-0.1047650325	 0.124239
H	-0.3176266648	-2.4117799143	-0.8487590025	 0.141363
H	 2.3201800675	-2.435499402	-2.4258205457	 0.122997
H	 1.1805466943	-3.7926282899	-2.2994215943	 0.134456
