19
0 0
C	 0.0626610407	 1.5666693816	 0.0058855984	-0.345801
N	-0.0018270832	 0.1357671914	 0.2195778252	-0.099346
C	-1.2423956246	-0.5061218647	 0.7063874851	-0.130243
C	-0.3611599492	-1.5048847008	 1.522734951	-0.329687
C	 0.7878680882	-0.5303214751	 1.2598384083	 0.387437
C	 2.2580082009	-0.771261661	 1.2336372955	-0.331702
C	 1.6492005527	 0.1310406759	 2.2986748548	-0.32739
C	-2.0983827831	 0.3374306676	 1.5536685572	 0.273768
N	-2.7583155552	 1.0292778132	 2.2044227246	-0.332003
H	 1.0758647038	 1.8348193155	-0.3096560729	 0.127002
H	-0.6188460415	 1.8420392993	-0.805174192	 0.131025
H	-0.1989348072	 2.1633158338	 0.8943654102	 0.124861
H	-1.8592366444	-0.9320538165	-0.0917647764	 0.120034
H	-0.653254461	-1.659983138	 2.5606567337	 0.131611
H	-0.2537820084	-2.4640530495	 1.01321828	 0.123311
H	 2.6243106255	-1.749678055	 1.5280083688	 0.117297
H	 2.8359641808	-0.2977781671	 0.4460987392	 0.118937
H	 1.8347858408	 1.1965973068	 2.2151501302	 0.121831
H	 1.5968635944	-0.2305363974	 3.3207573293	 0.119057
