16
0 0
C	 0.0234714403	 1.4289423321	-0.0205551196	-0.332944
N	 0.0025218548	-0.013462766	 0.0772295521	 0.011868
N	-0.0443053501	-0.7577914655	-1.040224921	-0.165791
N	-0.0425020077	-2.0134854286	-0.674370601	-0.258867
C	-0.0089874465	-2.0776143894	 0.681921108	 0.221521
N	-0.0649318904	-3.2952189034	 1.3733799891	-0.597825
C	 0.0124315877	-0.7947602971	 1.1954773579	 0.270622
C	 0.0241506027	-0.2853832466	 2.5948853728	-0.515283
H	 0.9376459931	 1.8379167768	 0.4206200583	 0.141262
H	-0.01203482	 1.6784988799	-1.080858572	 0.169537
H	-0.842081155	 1.8679862046	 0.4851111232	 0.142656
H	-0.0894380853	-4.0600628417	 0.7086382656	 0.251795
H	 0.7218863589	-3.4313049215	 1.9969798802	 0.243548
H	 1.0049859553	 0.1018622343	 2.8989674982	 0.13419
H	-0.7045649646	 0.5192502277	 2.7439371529	 0.13503
H	-0.2388240232	-1.0991651255	 3.2758566153	 0.148681
