16
0 0
C	-0.0078809979	 1.4178643254	-0.0414317237	-0.31199
N	-0.011152247	-0.0400611793	-0.0183752497	-0.052413
N	-0.0614055799	-0.6574094344	-1.1966943854	-0.208368
C	-0.0674648195	-1.9577614799	-1.212923383	-0.039542
C	-0.0184005157	-2.7637786334	-0.0261306661	 0.326107
N	-0.0818337583	-4.1335710832	-0.1562764672	-0.587847
C	 0.0389032379	-2.1121554551	 1.1765292316	-0.325964
C	 0.04111363	-0.676185874	 1.2477947501	 0.436136
O	 0.0879103781	 0.0099004278	 2.2591606416	-0.415231
H	 0.8974156667	 1.7989971767	 0.4376602067	 0.148853
H	-0.0524574425	 1.7282777673	-1.0838032307	 0.141095
H	-0.8661271875	 1.8036055189	 0.5143337848	 0.149651
H	-0.1173126363	-2.416917766	-2.1953711419	 0.112879
H	 0.2155052512	-4.5235877742	-1.0367765658	 0.259003
H	 0.198375139	-4.6801545265	 0.6430672582	 0.261162
H	 0.0818603116	-2.6417489901	 2.1212305207	 0.106468
