21
0 0
C	-0.0215590074	 1.5716131452	 0.0247806573	-0.455751
C	-0.001105467	 0.0473719537	 0.0091064115	 0.326151
C	-1.4017030674	-0.5193140333	-0.2407160259	-0.444199
C	 1.0757821696	-0.6648628221	-0.8678462497	-0.085822
C	 2.465759491	-0.2292325717	-0.3458719288	-0.079508
C	 2.6916589866	-1.4895991989	 0.4566300552	-0.125125
C	 2.2035510639	-0.247960006	 1.1663032729	-0.079542
C	 0.7209458818	-0.6906401921	 1.1795223019	-0.085762
C	 1.1936899888	-1.8258181072	 0.1925594287	-0.055877
H	 0.9754519681	 1.9841553255	 0.2027011555	 0.116044
H	-0.3858070673	 1.9704083787	-0.9296518469	 0.107256
H	-0.6872700815	 1.9484583763	 0.8105748578	 0.107257
H	-1.7981172545	-0.1726451708	-1.2020914805	 0.108948
H	-1.4069605734	-1.6138318553	-0.2553941511	 0.112731
H	-2.099913483	-0.1945514205	 0.5394129902	 0.108952
H	 0.9402789458	-0.8278969132	-1.937647909	 0.053511
H	 3.1943854124	 0.4271148255	-0.8028403383	 0.082362
H	 3.577156423	-2.0929293576	 0.6027219313	 0.084629
H	 2.7330581992	 0.39422858	 1.8574815782	 0.082362
H	 0.2341312542	-0.8791953125	 2.1370602571	 0.053523
H	 0.7391713273	-2.8079940538	 0.1014090825	 0.067861
