19
0 0
C	-0.0240785084	 1.4554142198	 0.0757861602	-0.498929
C	-0.0297592328	 0.0004419437	 0.0571238978	 0.139105
C	-0.0444899418	-1.202423832	 0.0425017713	 0.002805
C	-0.0338451887	-2.6576987388	 0.028540691	-0.205234
O	-1.3539436467	-3.1561380242	-0.1062206094	-0.246598
C	-1.393036492	-4.565275754	-0.1577487572	-0.063136
C	-2.8257324388	-4.996083708	-0.3042042016	 0.082323
C	-3.2645929659	-6.3301700496	 0.1197514033	-0.182423
O	-3.5767486278	-5.1752825114	 0.8966793097	-0.224629
H	 0.5333702011	 1.8649464162	-0.7737052923	 0.148083
H	-1.0448556797	 1.8495524888	 0.0235348978	 0.154732
H	 0.4331154594	 1.8414329354	 0.9934072151	 0.149192
H	 0.5956652575	-3.0221252095	-0.8026833859	 0.11091
H	 0.4232127219	-3.0406287545	 0.9575429688	 0.115506
H	-0.8040169202	-4.9370356895	-1.0157534852	 0.08866
H	-0.9703242869	-5.0112199057	 0.7575472172	 0.095803
H	-3.3702103514	-4.4945957717	-1.1045002141	 0.103757
H	-4.1054110918	-6.8051718646	-0.383372905	 0.117383
H	-2.547913117	-7.0168246203	 0.5698587086	 0.11269
