15
0 0
O	 0.6924428113	-0.0738830772	 0.7020718377	-0.422248
C	-0.1533023852	 0.3178629979	-0.4016410471	-0.202718
C	-1.5188639539	-0.2782592276	-0.2765580507	 0.104856
C	-1.749148767	-1.522346022	 0.2743953024	 0.326936
O	-0.8989471306	-2.4147364087	 0.8280333423	-0.440438
N	-3.0820673385	-1.7950388117	 0.2174189886	-0.304194
C	-3.7399711366	-0.727746278	-0.3752829201	-0.091665
C	-2.7988377063	 0.2191494337	-0.6835208302	-0.261433
H	 0.2944236997	 0.297503126	 1.4983167575	 0.287718
H	-0.2026699545	 1.4125107739	-0.4815228588	 0.106649
H	 0.3861654199	-0.0431066006	-1.2858892323	 0.121987
H	-0.0525338745	-1.9406419162	 0.9043364559	 0.303904
H	-3.5045977865	-2.6285678877	 0.5872994866	 0.264331
H	-4.8073484397	-0.7478741743	-0.5165843492	 0.116257
H	-2.9919328276	 1.1686449124	-1.1604664025	 0.09006
