19
0 0
O	-0.0584064472	 1.5066160992	 0.1340353719	-0.430586
C	 0.0243659549	 0.1079564063	 0.0379226187	-0.010589
C	 0.2890159677	-0.7529638664	 1.3504105518	-0.35482
C	-0.748568088	-1.7546559342	 0.7508957741	 0.147846
O	-1.9203753737	-2.3735885807	 1.2996574278	-0.300358
C	-2.9394568366	-1.594772804	 0.6128540941	 0.099172
C	-2.4879826362	-0.1572837032	 0.9172025304	-0.244962
C	-1.335021356	-0.6003739532	-0.0419501709	 0.289984
C	-2.4263694372	-1.3459843024	-0.862259662	-0.350054
H	 0.8328477922	 1.8598471458	 0.2194102078	 0.286443
H	 0.7082454953	-0.203507301	-0.7643211085	 0.077217
H	 1.3014651365	-1.1280392109	 1.5138909553	 0.095293
H	-0.0583570439	-0.2185392485	 2.2346554442	 0.122113
H	-0.21847408	-2.4921448466	 0.1363382172	 0.074084
H	-3.9251865702	-1.997320969	 0.8398660951	 0.083408
H	-3.1066605522	 0.6180497342	 0.4623608982	 0.10536
H	-2.2707312478	 0.0768793084	 1.9595991539	 0.103954
H	-2.109405177	-2.2102539478	-1.450594404	 0.100788
H	-3.1219621006	-0.7197558959	-1.4238221852	 0.105707
