19
0 0
O	-0.1774346137	 1.3351485035	 0.9327891231	-0.435739
C	-0.0346018632	 0.1335638404	 0.2260554918	 0.128472
C	 0.519152647	-1.0860174657	 1.0291944153	-0.265713
C	-0.8805201897	-1.7653811593	 0.9634553581	-0.059222
C	-1.7812977888	-1.5613966355	 2.1650159301	 0.026684
O	-1.7480762827	-0.2166151162	 2.6960560887	-0.27027
C	-2.8473275631	-0.5957525227	 1.845107557	 0.048797
C	-2.6991002303	-0.1047004347	 0.4160082259	-0.272565
C	-1.3520595294	-0.6812642843	-0.0625453288	-0.052885
H	-0.6234613322	 1.10996044	 1.7642686785	 0.291113
H	 0.5354764146	 0.3800262666	-0.6735591978	 0.080466
H	 1.2872337554	-1.6445267704	 0.4883214448	 0.100187
H	 0.8968833719	-0.8451198124	 2.0257723792	 0.108295
H	-0.9018993378	-2.8110952444	 0.6461712371	 0.069344
H	-1.8932777565	-2.3321608364	 2.9231463123	 0.099158
H	-3.8161349173	-0.5982162145	 2.3385331528	 0.099398
H	-3.5342726545	-0.4821444599	-0.1842321696	 0.103669
H	-2.7148896786	 0.9886327881	 0.3617766854	 0.129126
H	-1.3956846509	-1.0245579923	-1.0980474237	 0.071683
