21
0 0
O	-0.1335504719	 1.4761007104	-0.2317223018	-0.423821
C	 0.0223446131	 0.0844426329	 0.0253045783	-0.124665
C	-1.3594944798	-0.5450839396	-0.0531656834	 0.056557
C	-2.0689691131	-0.544356586	-1.4355276719	-0.05488
C	-1.1434959305	-1.50134504	-2.2623731767	-0.209685
C	-0.7239977185	-2.5737113362	-1.2114004903	-0.206205
C	-1.454650382	-2.0872012871	 0.0896567565	-0.085136
C	-2.9391856748	-2.2772848414	-0.1821681434	-0.081752
C	-3.3022170201	-1.3632124828	-1.0882540514	-0.082379
H	 0.7345587846	 1.887539492	-0.1917439384	 0.285513
H	 0.7199718259	-0.3684391989	-0.6932036376	 0.085257
H	 0.4374601227	-0.0887126531	 1.0321259719	 0.08272
H	-1.9921160238	-0.0516061885	 0.6910052696	 0.07713
H	-2.2400441445	 0.4282937046	-1.894650126	 0.069039
H	-1.6725772479	-1.9299673077	-3.116383072	 0.095079
H	-0.2764385746	-0.9612963835	-2.6543695679	 0.097082
H	-1.0371048697	-3.5831664122	-1.4872773845	 0.095869
H	 0.3608428771	-2.5970910696	-1.0699928379	 0.092376
H	-1.0723052586	-2.5274028033	 1.0122441553	 0.05332
H	-3.5367362465	-3.0885138533	 0.2154282124	 0.089294
H	-4.261941807	-1.2699367467	-1.5818621608	 0.089289
