19
0 0
C	 1.3666687256	-0.7211707968	 0.1330721549	-0.305403
N	 0.0366238374	-0.1370640155	 0.0119140898	-0.355861
C	-1.1790519172	-0.7548362944	-0.0814647803	 0.304096
N	-2.3199013106	-0.1688942781	-0.1875627028	-0.279655
C	-2.3480637983	 1.2771399981	-0.2130337754	-0.346695
C	-1.2399969165	-2.2613207821	-0.0626557426	 0.307613
O	-0.2526067341	-2.9649438992	 0.0319926623	-0.347268
C	-2.6107053501	-2.9138881043	-0.1682320069	-0.118331
O	-2.496298084	-4.3085939062	-0.1359976846	-0.430505
H	 2.0816968308	 0.1037838779	 0.1806297025	 0.118674
H	 1.470273038	-1.325842809	 1.0371014046	 0.145637
H	 1.6186670541	-1.3530257391	-0.7218771177	 0.145579
H	 0.0015301115	 0.867189221	-0.0074164917	 0.248738
H	-1.9294377704	 1.720702532	 0.7063273499	 0.114809
H	-1.7792822218	 1.6924754957	-1.0622624918	 0.114786
H	-3.3800678119	 1.6224738285	-0.3061321464	 0.1314
H	-3.2378183329	-2.5378178051	 0.6518995378	 0.131488
H	-3.0898771111	-2.5659435088	-1.0938012814	 0.131467
H	-1.5472770184	-4.4894268746	-0.0531976603	 0.289431
