25
0 0
C	-0.1074655624	 1.5847527895	-0.0063040101	-0.417249
C	 0.0377844773	 0.0796843026	 0.0318339275	-0.001488
C	 1.301263384	-0.6689666425	-0.3340807514	-0.056284
C	 2.6348358287	 0.0768828613	-0.3485967538	-0.270661
C	 3.1339731801	 0.0934590108	 1.1295414207	 0.341689
C	 3.9338044668	-1.1933268591	 1.4017368704	-0.417907
C	 3.9960508666	 1.3192394024	 1.4459668461	-0.44214
C	 1.8154232473	 0.0564952234	 1.9628234894	-0.270656
C	 0.7928953713	-0.6816431753	 1.0999720664	-0.056283
H	 0.7933253548	 2.111654926	 0.3172836706	 0.119171
H	-0.3360526731	 1.926741713	-1.0221518486	 0.114666
H	-0.9262087463	 1.9120393023	 0.6446199854	 0.11467
H	-0.8669020429	-0.4305779269	-0.29339426	 0.077279
H	 1.1990420354	-1.5444298664	-0.9662076246	 0.075251
H	 3.3582365492	-0.4194476591	-1.003085499	 0.09102
H	 2.526179122	 1.0991526033	-0.7298524324	 0.090849
H	 4.8364340294	-1.2358320267	 0.7818032174	 0.105776
H	 4.2446877704	-1.2505590583	 2.4509941611	 0.105776
H	 3.3343723195	-2.0831852321	 1.1813808219	 0.115404
H	 3.4478917515	 2.2497120012	 1.2598486563	 0.107231
H	 4.3117531673	 1.3230710668	 2.4955209551	 0.108385
H	 4.9022683558	 1.3377643765	 0.8297906455	 0.108385
H	 1.9678660187	-0.4540114716	 2.9189362784	 0.091019
H	 1.4852104819	 1.0732558232	 2.20645264	 0.090848
H	 0.3202761467	-1.5663468244	 1.5127670078	 0.07525
