18
0 0
C	-0.1615251567	 1.3398494084	 0.0828798456	-0.238616
O	 0.3486612105	 0.042092008	-0.1309441574	-0.22637
C	 0.7939484674	-0.5803178917	 1.0380837811	 0.147442
C	-0.2700655298	-1.1853231141	 2.0167184099	-0.281493
C	 0.3684973937	-2.5869014184	 1.8105486408	 0.018923
N	-0.1809393258	-3.3587898869	 0.6966149305	-0.323393
C	 0.6475715297	-2.8122347965	-0.2719885475	 0.438515
O	 0.7092730379	-2.9607149323	-1.4590869797	-0.351095
C	 1.4035065703	-1.9877241366	 0.7982991433	-0.2524
H	 0.5971222733	 2.003984198	 0.5259612282	 0.106292
H	-0.4543907455	 1.7355559977	-0.8918500792	 0.135677
H	-1.0421607211	 1.3341007478	 0.7427193136	 0.107519
H	 1.498595292	 0.0712655781	 1.576864646	 0.073364
H	-0.1988945819	-0.8027967858	 3.0374791741	 0.106104
H	-1.304591853	-1.112055254	 1.6739036637	 0.107704
H	 0.6484903568	-3.1719689844	 2.686460619	 0.089195
H	-1.1008307034	-3.7639922554	 0.5834460787	 0.244576
H	 2.4830979756	-2.1057485019	 0.8590623394	 0.098056
