15
0 0
C	 0.0641397332	 1.4001611275	 0.0070864582	-0.247573
O	-0.0024539827	-0.015552209	 0.0032132482	-0.264083
C	-1.2278178514	-0.5988212408	 0.0108704901	 0.349188
C	-2.4474971395	 0.0865589796	 0.0223938876	-0.1159
N	-3.6322322725	-0.5328258503	 0.0296235854	-0.25659
C	-3.6469748076	-1.8640449161	 0.0256313156	-0.010416
C	-2.4844659435	-2.6362213765	 0.0142780978	-0.107924
C	-1.2567148871	-1.9962479491	 0.0067790131	-0.165122
H	 1.1255127982	 1.6524758334	-0.000302654	 0.138269
H	-0.4159104122	 1.8295565503	-0.8812701326	 0.129995
H	-0.4021545436	 1.8240218128	 0.9053716991	 0.129996
H	-2.4787674034	 1.1712901228	 0.0259720255	 0.102663
H	-4.6252865535	-2.3375521028	 0.031722192	 0.104492
H	-2.5443923994	-3.7191919502	 0.0113983856	 0.101548
H	-0.3195961851	-2.5417576315	-0.0021365918	 0.111457
