16
0 0
O	-0.0424861292	 1.424893946	 0.0019836307	-0.47669
C	 0.0019009174	 0.0298952529	-0.0200988955	 0.378796
C	 0.4293401497	-0.7169064049	-1.3192840379	-0.289463
C	-0.909121926	-1.5232921463	-1.284306271	-0.22215
C	-1.3429727356	-0.7550683615	-0.0002915314	-0.102695
C	-0.9132826036	-1.3704564868	 1.3546322208	 0.019727
O	 0.3313097232	-2.0615350739	 1.1573935807	-0.235636
C	 0.3678720463	-0.6448177236	 1.3402499781	-0.058976
H	 0.8634720266	 1.7553893489	 0.0140463825	 0.279985
H	 0.4962581929	-0.0262050901	-2.1636035452	 0.101005
H	 1.3444362363	-1.3084998439	-1.2544253152	 0.104682
H	-1.5593980663	-1.3374661044	-2.1412104221	 0.100355
H	-0.7900322545	-2.5987860401	-1.1496205448	 0.113826
H	-2.2882098867	-0.2137795544	 0.006679804	 0.083752
H	-1.531137799	-1.7121344321	 2.1775966941	 0.103717
H	 0.9874696685	-0.2536048557	 2.141857342	 0.099763
