17
0 0
C	-0.1482553928	 1.5757612271	 0.0349397805	-0.465745
C	-0.039298227	 0.0584931767	-0.0431825355	 0.178156
C	-1.3577434401	-0.5601853777	 0.1229764169	 0.254574
N	-2.4035676121	-1.0405868493	 0.2332571004	-0.341591
C	 0.8825345373	-0.613152398	-1.0756708313	-0.099288
C	 2.1188566702	-0.2613727235	-0.1970401315	-0.014576
C	 2.6345480084	-1.7006314377	-0.1531899739	-0.270784
C	 1.1106389515	-1.7994829394	-0.0925814736	-0.000686
N	 1.0282723385	-0.5778233454	 0.8727949378	-0.182283
H	 0.8253057277	 2.045459917	-0.1203371852	 0.128585
H	-0.8378033909	 1.9505418612	-0.7269634525	 0.14061
H	-0.5264319862	 1.8765074164	 1.0159210766	 0.14997
H	 0.7994126335	-0.6351361205	-2.166422589	 0.082704
H	 2.6780663535	 0.672935445	-0.1616845309	 0.095701
H	 3.1193425088	-2.0787523127	-1.0559645064	 0.109644
H	 3.172939197	-1.9909243925	 0.752210453	 0.120177
H	 0.4634310728	-2.6618695367	 0.0636406346	 0.114832
