23
0 0
C	 0.0987876677	 1.5586282608	 0.1596731109	-0.38378
C	 0.0147247459	 0.039159089	 0.000304026	-0.188945
C	-1.4232213365	-0.4867884101	-0.0464823801	 0.09718
C	-1.4403454724	-2.0173295816	-0.1859905583	-0.067489
O	-2.595054348	-2.6046396322	-0.7597017301	-0.266926
C	-3.8764175383	-2.1019181366	-0.4195753709	-0.053124
C	-4.0477260191	-1.5341700687	 0.9921329289	-0.23412
C	-3.4583731051	-0.1319206404	 1.1769673305	-0.067574
O	-2.0477692762	-0.0735939632	 1.1643785769	-0.252491
H	 1.1404066249	 1.8895424338	 0.2121428481	 0.109016
H	-0.3715614916	 2.0706000983	-0.6875838356	 0.108905
H	-0.4120253487	 1.8782171266	 1.0705245349	 0.134226
H	 0.5242226077	-0.272068399	-0.9188528509	 0.097778
H	 0.5347152757	-0.4524066514	 0.832638274	 0.105188
H	-1.9458033219	-0.0361402835	-0.9082245585	 0.069631
H	-0.6197320795	-2.3322939705	-0.839459703	 0.101908
H	-1.2439726315	-2.431328063	 0.8157421177	 0.094437
H	-4.1795332499	-1.326766378	-1.1444298288	 0.084997
H	-4.5580362068	-2.9481881502	-0.5602476907	 0.105413
H	-5.1261468453	-1.4662500233	 1.1857377698	 0.1011
H	-3.6335832492	-2.22185028	 1.7383954368	 0.114813
H	-3.8736644602	 0.5330348215	 0.3988671026	 0.084455
H	-3.7552968117	 0.2734067418	 2.1495632999	 0.105402
