18
0 0
C	-0.1943704968	 1.5617131359	-0.0253150968	-0.413813
C	 0.0316428158	 0.0520906926	-0.0146927347	 0.024347
C	 0.938876669	-0.5091385761	-1.1579424577	-0.267019
C	 1.9454134928	-1.3309913962	-0.3333167042	 0.180646
O	 1.1907894407	-1.8188691106	 0.7488472056	-0.245599
C	 0.7883072439	-0.5165958458	 1.2229798357	-0.054865
C	 2.1436763609	 0.1605384993	 1.3102847275	 0.445432
N	 2.5243113341	 1.0492466718	 2.1174808822	-0.558682
O	 2.868573013	-0.3952551705	 0.2846752944	-0.258781
H	 0.7507146051	 2.111101199	 0.0109438316	 0.135587
H	-0.7292740901	 1.8631978656	-0.9311845064	 0.119156
H	-0.791992663	 1.8770292173	 0.8360062132	 0.125446
H	-0.9343172362	-0.4604151259	-0.043943094	 0.091243
H	 0.3864630514	-1.1483242204	-1.8500783798	 0.114911
H	 1.4426967778	 0.2740048555	-1.7285961439	 0.118649
H	 2.512589101	-2.120102488	-0.8222767293	 0.105816
H	 0.2360615626	-0.5827232594	 2.155875139	 0.111725
H	 3.486266988	 1.3321558558	 1.9202795776	 0.2258
