20
0 0
C	-0.0162973664	 1.4517259223	 0.0215073521	-0.508401
C	-0.0030926387	-0.0535253571	 0.0071136691	 0.334088
C	 0.6194432156	-0.9854566414	-1.0823537502	-0.306611
C	 0.0157918888	-1.94212387	-0.0150422488	 0.370889
C	 0.0321344353	-3.4427600943	-0.0350090561	-0.220105
O	-0.6308613418	-3.9064078299	 1.134127351	-0.42185
C	 0.6331789989	-1.0074232676	 1.0657835011	-0.280433
C	-1.2334230234	-1.0136506024	 0.0045321287	-0.280437
H	 1.002223158	 1.855800775	 0.0183998165	 0.115501
H	-0.5378634357	 1.8506498327	-0.8557032757	 0.115499
H	-0.5245165824	 1.8318498759	 0.9147056595	 0.11744
H	 0.1381375429	-0.9790156045	-2.0657596681	 0.082269
H	 1.7106169534	-0.9737516545	-1.1717001001	 0.082281
H	-0.4685312805	-3.802924251	-0.949236126	 0.083581
H	 1.0756203838	-3.7978033817	-0.0714758712	 0.083566
H	-0.6234545163	-4.8678322909	 1.12051471	 0.287399
H	 1.7256712604	-0.9981974026	 1.1383983338	 0.078786
H	 0.1654730456	-1.0302383313	 2.0534593312	 0.093891
H	-1.8428429375	-1.0369667015	 0.9116331847	 0.093883
H	-1.8545826802	-1.0101047352	-0.8971616715	 0.078764
