18
0 0
O	-0.1251981223	 1.36573699	-0.0412319267	-0.493
C	-0.0258598288	-0.0228591267	 0.0150817584	 0.410346
C	 0.431062337	-0.7938234226	 1.2891747317	-0.303111
C	-0.4036565316	-1.9220657357	 0.6667103459	-0.026157
C	 0.001023015	-2.1134469632	-0.8646854585	-0.035656
C	-1.4524349387	-1.7169541066	-1.2456456042	-0.238977
C	-1.3664802148	-0.8692940831	 0.0308875267	-0.057416
C	 0.743383497	-0.7804789515	-1.0922945947	-0.274708
H	 0.7624614554	 1.7312530359	-0.1226265109	 0.276781
H	 1.5043001706	-0.9300283308	 1.4625646462	 0.080858
H	-0.05117388	-0.4055664528	 2.191095352	 0.099571
H	-0.7550398603	-2.7940402491	 1.2146638061	 0.068236
H	 0.4628434833	-3.0304557393	-1.2302269307	 0.060227
H	-1.6152789963	-1.2337806353	-2.2147924585	 0.090277
H	-2.1609006616	-2.541329513	-1.1207762695	 0.094609
H	-2.2151977744	-0.4334965822	 0.556157099	 0.070437
H	 0.5743334144	-0.3700967325	-2.0921687873	 0.094619
H	 1.8206166362	-0.8222976814	-0.900203285	 0.083065
