16
0 0
O	 0.3594994462	 1.340911506	 0.2835797883	-0.442741
C	 0.2191665807	 0.0073958401	 0.0705100787	 0.301811
C	 0.183263631	-0.8109591906	-1.0254625931	-0.236885
N	 0.0098100092	-2.1504601256	-0.6392020815	-0.389328
C	-0.041224007	-2.088511554	 0.6573129671	 0.443159
N	-0.3130429336	-2.9856601008	 1.6962237819	-0.402952
C	 0.0789716431	-2.2884253626	 2.9388093592	-0.175911
C	-0.1030328497	-0.7819256997	 2.5947841299	-0.17694
N	 0.108031548	-0.8273975394	 1.1628095895	-0.066704
H	 0.4347087359	 1.7753326828	-0.5716020715	 0.308514
H	 0.2814582495	-0.5343146849	-2.063809714	 0.093598
H	 0.0864506122	-3.9063076135	 1.5743272955	 0.24991
H	-0.5499296	-2.5946552449	 3.7777221608	 0.121405
H	 1.129206772	-2.4785682069	 3.2021266041	 0.112113
H	-1.1132388296	-0.4285885199	 2.8360757667	 0.128095
H	 0.6220020721	-0.1466846161	 3.1079119084	 0.132855
