19
0 0
C	-0.0100049847	 1.5463810818	 0.0245689337	-0.477698
C	 0.1069133291	 0.0427634801	-0.0240144104	 0.198206
N	-0.7882282236	-0.7997197595	 0.8211994306	-0.360831
C	 0.6376293449	-0.734113332	 1.1476938621	-0.085041
C	 1.426266802	-2.0283269792	 0.9318998624	-0.172438
N	 1.7504513992	-2.344012397	-0.4606955781	-0.294652
C	 0.6452532311	-2.0532912412	-1.3846428091	-0.273997
C	 0.3254427078	-0.5619788853	-1.3870008164	 0.36727
O	 0.3226006389	 0.1173560392	-2.3909058539	-0.323145
H	 0.8810547781	 2.0202301001	-0.3969371094	 0.137306
H	-0.8654627482	 1.8865357194	-0.5662466992	 0.140452
H	-0.1317475689	 1.8931503507	 1.0557035427	 0.106772
H	-1.3258278893	-0.1910016215	 1.4345995791	 0.235381
H	 0.920348919	-0.1410331805	 2.0165501217	 0.090741
H	 2.3647369029	-1.9842463889	 1.4931114946	 0.106624
H	 0.8354335284	-2.8541100296	 1.3483391389	 0.121392
H	 2.5616946762	-1.8040379141	-0.746854108	 0.222273
H	 0.9152262937	-2.3527896245	-2.4000196999	 0.121337
H	-0.2340895267	-2.6234048879	-1.0657775214	 0.140047
