15
0 0
O	-0.0197608084	-0.0858043754	-0.0191094835	-0.263358
C	-0.0156171168	 1.1271264377	-0.0062880203	 0.04247
C	 1.2119026436	 1.9193417673	 0.028044624	 0.089575
C	 1.307356932	 3.2651856167	 0.0434170085	 0.088551
C	 2.7713901684	 3.648591101	 0.0788137103	-0.165043
O	 3.485734772	 2.4254890538	 0.0823002542	-0.26726
C	 2.5887758039	 1.3159153998	 0.0518247016	-0.14963
C	 0.2739836341	 4.2221615828	 0.0305374044	 0.211369
C	-0.565727241	 5.0868772814	 0.0208299817	-0.393114
H	-0.9567205392	 1.7136527582	-0.0214988607	 0.088665
H	 3.0454533395	 4.2575944033	-0.796243861	 0.125553
H	 3.007178476	 4.240241799	 0.9766203733	 0.125565
H	 2.7417704868	 0.6777658071	 0.933644281	 0.128408
H	 2.7800154404	 0.6953990432	-0.8351042633	 0.128408
H	-1.3187496712	 5.8359677341	 0.0114280298	 0.209842
