16
0 0
C	 0.2710492917	 1.631284489	-0.0339814182	-0.407348
C	 0.1206640969	 0.1143916433	-0.0196283457	-0.139815
C	 0.7032853797	-0.7546842086	-1.1718861108	 0.053045
O	 1.7385479104	-0.1138034788	-1.9446412736	-0.217842
C	 2.9128942336	-0.5559223961	-1.424496467	 0.114469
N	 2.9161289394	-1.396446236	-0.4722153316	-0.248401
C	 1.5049505556	-1.6409437441	-0.1571835751	-0.144858
C	 0.9777965071	-0.7073298034	 0.9746383045	 0.39707
O	 1.1770754331	-0.6274326608	 2.1475637354	-0.282695
H	 1.2951221871	 1.9255086052	-0.2752348267	 0.133462
H	-0.3948589685	 2.0868059388	-0.7725074017	 0.127383
H	 0.0218558635	 2.0351728996	 0.9511030776	 0.141099
H	-0.9315233694	-0.1594904818	 0.1382371382	 0.114571
H	-0.0106874741	-1.2000430133	-1.863485719	 0.100104
H	 3.7960752276	-0.1440906234	-1.8993642053	 0.151372
H	 1.2866588563	-2.7057120796	-0.0511835808	 0.108383
