15
0 0
O	-0.0972891877	 1.4180747831	-0.1004394011	-0.463307
C	-0.0753358065	 0.0323065433	-0.1061592091	 0.343746
C	 0.7439357262	-0.7315325371	-1.078028456	-0.154553
C	 0.1408386158	-1.8979313717	-1.3255695787	-0.078508
N	-1.0764889333	-2.077421656	-0.5195833674	-0.172529
C	-0.4488629242	-2.7293291491	 0.6312909235	 0.016303
N	-0.1083831416	-1.9887553795	 1.6108335696	-0.189211
C	-0.5271503018	-0.6639497094	 1.2626221039	-0.085473
C	-1.3647993895	-0.7148042406	 0.0222149631	-0.099488
H	 0.6768648411	 1.7350286193	 0.3769317017	 0.294188
H	 1.6683544268	-0.3755291322	-1.5124476819	 0.112267
H	 0.4705227335	-2.7200307433	-1.9456468087	 0.125969
H	-0.2400543564	-3.7912990259	 0.5672475951	 0.133806
H	-0.7168116563	 0.036782849	 2.0654894657	 0.110474
H	-2.3540220862	-0.29421992	-0.1198970096	 0.106315
