21
0 0
C	 0.0592157374	 1.570463997	 0.0645447116	-0.376589
C	-0.0253666808	 0.0434750437	 0.0045634537	-0.15086
N	-1.4012227084	-0.4520455715	-0.0169395305	-0.088983
C	-2.0398083846	-0.7045917327	 1.2723297475	-0.157671
C	-3.5522384031	-0.8818157989	 1.1356082099	-0.183168
N	-3.9155803101	-1.7904689313	 0.0550407524	-0.283001
C	-3.4030570552	-1.2861394308	-1.2154600875	-0.284489
C	-1.9796325018	-0.7167265457	-1.2287646934	 0.39037
O	-1.4151586346	-0.4943535753	-2.2889853505	-0.397888
H	 1.1046307528	 1.8916814076	 0.1121795614	 0.117015
H	-0.3937070584	 2.0065113412	-0.8295862437	 0.142764
H	-0.4546530326	 1.9713021863	 0.9448626458	 0.111611
H	 0.4630998542	-0.3178180535	-0.9020045524	 0.141349
H	 0.4786979558	-0.4045960864	 0.8693945591	 0.096457
H	-1.5994025048	-1.6040465472	 1.7333397296	 0.099934
H	-1.8200588355	 0.1330105732	 1.9474699976	 0.109269
H	-3.9628626199	-1.2463633212	 2.0825594315	 0.109275
H	-4.0215186887	 0.0884824169	 0.9288867814	 0.115938
H	-3.5206858504	-2.7080162317	 0.2404759972	 0.219724
H	-3.4369478392	-2.0712458866	-1.9746361562	 0.134412
H	-4.061940082	-0.4838770931	-1.5753425746	 0.134532
