13
0 0
N	-0.000620499	 1.3691019718	-0.1224950701	-0.572219
C	-0.0210449008	 0.0043348858	-0.0502445148	 0.416961
C	-1.2188663231	-0.7431042637	-0.0299799228	-0.074882
N	-1.192615112	-2.0547875119	-0.0122721763	-0.255857
C	 0.0364724407	-2.6190969831	-0.0194274829	 0.178753
N	 1.1931151537	-1.9442337229	-0.0299784473	-0.21829
N	 1.1632440352	-0.6225627217	-0.03942683	-0.26117
C	 0.1174155669	-4.0445042802	-0.0098054471	 0.291762
C	 0.1798701567	-5.2452147621	-0.0027711043	-0.359275
H	 0.894772642	 1.7955808646	 0.0642365815	 0.270197
H	-0.8058407706	 1.8795632805	 0.200544533	 0.264755
H	-2.1914853648	-0.252512584	-0.0269622045	 0.119305
H	 0.238314045	-6.3055521531	 0.0036851558	 0.19996
