17
0 0
O	 0.0552039339	 1.4062978558	-0.0490390119	-0.472157
C	-0.0349271491	 0.0241164999	-0.053736324	 0.344633
C	-0.4708416383	-0.6815594956	-1.3140316299	-0.361298
C	-1.3174384422	-0.7818996012	-0.0631342989	-0.12599
C	-1.1277295754	-1.9948880397	 0.8546078307	-0.040427
C	-0.130780099	-3.0456311345	 0.4804292676	-0.303767
C	 0.2788008706	-1.9363709253	 1.4394581325	-0.144933
C	 0.8788535343	-0.6568094201	 0.9423585231	 0.330451
O	 1.8305356966	-0.0774578017	 1.4190024592	-0.352774
H	 0.8523695936	 1.600575371	 0.4682589352	 0.294386
H	-0.8369268622	 0.0056202343	-2.0701029962	 0.132641
H	 0.0609921296	-1.535362552	-1.7157998022	 0.119318
H	-2.2844691533	-0.2940868925	-0.0602682131	 0.106678
H	-1.9666239802	-2.2763648994	 1.4794367021	 0.101853
H	-0.2411350442	-4.0212242082	 0.9413970943	 0.127262
H	 0.2905456403	-3.0842482015	-0.5153653127	 0.129364
H	 0.5174340952	-2.2030866794	 2.4613645241	 0.114759
