23
0 0
C	 0.072232875	 1.538356852	-0.0455391904	-0.38252
C	 0.2800899281	 0.0220084695	-0.021642685	-0.150647
C	 0.5209660231	-0.5314300006	 1.3898349487	-0.209891
C	 0.7047744155	-2.0361101662	 1.4079257396	-0.073722
C	 1.9881625711	-2.7779478534	 1.0664155016	-0.12397
C	 3.2181703959	-2.0479250309	 1.6218895539	-0.225707
C	 2.6160925547	-2.149967218	 3.0621116949	-0.294649
C	 1.3877744092	-2.8539313483	 2.4687189729	 0.359423
O	 0.7819404955	-3.94998279	 3.0647609297	-0.461039
H	 0.9460241107	 2.0643467904	 0.3555251535	 0.112719
H	-0.097191313	 1.9038745696	-1.0632429094	 0.110769
H	-0.7930404894	 1.8294820908	 0.5607768944	 0.111961
H	-0.5951158236	-0.475883115	-0.459778785	 0.09245
H	 1.130693627	-0.247234438	-0.6605873947	 0.100965
H	 1.3936409278	-0.0319882542	 1.8264012124	 0.097556
H	-0.329325152	-0.262276117	 2.0327279753	 0.08686
H	-0.1555079081	-2.5807164354	 1.0180015862	 0.081971
H	 2.0063076883	-3.5333592881	 0.2900749637	 0.086518
H	 4.1382049622	-2.6261911431	 1.5152824282	 0.104364
H	 3.3993171247	-1.0391311073	 1.2381961467	 0.096017
H	 3.1892817085	-2.8322510148	 3.6936002389	 0.109079
H	 2.4460238643	-1.2184901296	 3.6125743646	 0.088708
H	 0.0158377044	-3.6408711925	 3.5600117392	 0.282784
