14
1 0
C   -0.09744859  -0.19747838  -1.22587769
C   -0.21021435  -0.20754404   1.21012716
C    0.72613192   0.89499156  -1.15012320
C    0.61472102   0.88653153   1.21953202
C   -0.59941038  -0.79496701  -0.03087159
N    1.07091101   1.42181060   0.05547320
N   -1.39844737  -1.86456483  -0.07238983
H   -0.35771453  -0.60098204  -2.20495718
H   -0.56282661  -0.61631884   2.15757453
H    1.13743529   1.38647546  -2.03181833
H    0.93968146   1.37279315   2.13933277
H    1.68244913   2.23343715   0.08713184
H   -1.67241848  -2.28056470  -0.96135547
H   -1.78064114  -2.26727949   0.77782024
