18
1 0
C   -1.44533607  -1.99804206  -0.81205137
C   -1.32633607  -1.73254206   0.55204863
C   -0.78773607  -1.19034206  -1.73985137
C   -0.54973607  -0.65914206   0.98854863
C   -0.01123607  -0.11694206  -1.30345137
C    0.10786393   0.14865794   0.06074863
C    0.91236393   1.26215794   0.51264863
N    0.90946393   1.62335794   1.80674863
N    1.67436393   1.94845794  -0.35545137
H   -2.05023607  -2.83364206  -1.15225137
H   -1.83783607  -2.36164206   1.27444863
H   -0.88133607  -1.39714206  -2.80185137
H   -0.46333607  -0.45954206   2.05334863
H    0.49646393   0.50765794  -2.03385137
H    0.33906393   1.12485794   2.48064863
H    1.46286393   2.40605794   2.13814863
H    1.69886393   1.69185794  -1.33605137
H    2.24786393   2.72845794  -0.05335137
