35
1 1 
 C    2.553873235307    1.135041252799    0.236274653999
 C    3.045873235307    1.424041252799   -1.165725346001
 C    1.600873235307   -0.881958747201    1.320274653999
 N    2.316873235307   -0.303958747201    0.371274653999
 N    0.982873235307   -0.155958747201    2.230274653999
 N    1.481873235307   -2.194958747201    1.333274653999
 H    3.307873235307    1.451041252799    0.960274653999
 H    1.631873235307    1.696041252799    0.401274653999
 H    2.252873235307    1.173041252799   -1.869725346001
 H    3.900873235307    0.778041252799   -1.354725346001
 H    2.842873235307   -0.925958747201   -0.242725346001
 H    1.060873235307    0.845041252799    2.200274653999
 H    0.414873235307   -0.596958747201    2.934274653999
 H    1.980873235307   -2.739958747201    0.647274653999
 H    0.924873235307   -2.652958747201    2.035274653999
 H    3.343645235307    2.474541252799   -1.299105346001
 C   -1.381126764693   -2.723958747201   -1.293725346001
 C   -1.562126764693    0.673041252799    0.257274653999
 C   -1.224126764693   -0.163958747201   -0.834725346001
 C   -1.533126764693   -1.510958747201   -0.454725346001
 C   -2.086126764693   -1.442958747201    0.786274653999
 C   -0.816126764693    2.597041252799   -0.909725346001
 C   -1.378126764693    2.048041252799    0.226274653999
 C   -0.496126764693    1.797041252799   -2.011725346001
 C   -0.689126764693    0.421041252799   -1.985725346001
 N   -2.101126764693   -0.137958747201    1.221274653999
 H   -0.639126764693    3.664041252799   -0.959725346001
 H   -1.637126764693    2.660041252799    1.078274653999
 H   -0.072126764693    2.254041252799   -2.886725346001
 H   -0.422126764693   -0.191958747201   -2.831725346001
 H   -2.483126764693    0.162041252799    2.112274653999
 H   -2.461126764693   -2.293958747201    1.347274653999
 H   -1.281126764693   -3.596958747201   -0.645725346001
 H   -0.462126764693   -2.630958747201   -1.875725346001
 H   -2.230416764693   -2.867428747201   -1.977915346001
