23
0 1 
 C    0.693654889411    1.658451168351    1.673062969638
 C    0.888654889411    0.843451168351    0.422062969638
 C    1.400654889411   -0.450548831649    0.491062969638
 C    0.531654889411    1.361451168351   -0.814937030362
 C    1.568654889411   -1.209548831649   -0.664937030362
 C    0.692654889411    0.601451168351   -1.970937030362
 C    1.210654889411   -0.686548831649   -1.895937030362
 H    0.632654889411    0.969451168351    2.515062969638
 H   -0.265345110589    2.173451168351    1.614062969638
 H    1.676654889411   -0.870548831649    1.448062969638
 H    0.125654889411    2.360451168351   -0.880937030362
 H    1.979654889411   -2.200548831649   -0.624937030362
 H    0.405654889411    1.006451168351   -2.930937030362
 H    1.337654889411   -1.277548831649   -2.791937030362
 H    1.493994889411    2.385771168351    1.874220969638
 C   -2.381345110589   -0.739548831649    0.803062969638
 C   -3.698345110589   -1.256548831649    1.383062969638
 H   -2.163345110589    0.253451168351    1.196062969638
 H   -1.567345110589   -1.406548831649    1.084062969638
 H   -2.437345110589   -0.703548831649   -0.284937030362
 H   -3.575345110589   -1.299548831649    2.464062969638
 H   -4.526675110589   -0.573798831649    1.142810969638
 H   -3.914755110589   -2.270288831649    1.014953969638
