21
0 1 
 C    0.599963576151    2.331195025735    1.815500500000
 C   -0.650036423849    1.644195025735    1.292500500000
 O   -1.290036423849    2.101195025735    0.345500500000
 N   -1.017036423849    0.533195025735    1.914500500000
 H    1.376963576151    1.576195025735    1.931500500000
 H    0.393963576151    2.733195025735    2.802500500000
 H   -1.820036423849    0.039195025735    1.554500500000
 H   -0.436036423849    0.136195025735    2.628500500000
 H    0.977553576151    3.109445025735    1.135970500000
 C    0.820963576151   -2.239804974265    0.927500500000
 C    0.525963576151   -1.547804974265   -0.372499500000
 C   -0.409036423849   -1.828804974265   -1.319499500000
 C    0.718963576151   -0.054804974265   -1.976499500000
 N    1.218963576151   -0.435804974265   -0.805499500000
 N   -0.266036423849   -0.881804974265   -2.310499500000
 H   -0.069036423849   -2.144804974265    1.548500500000
 H    1.635963576151   -1.732804974265    1.437500500000
 H   -1.127036423849   -2.638804974265   -1.289499500000
 H    1.059963576151    0.790195025735   -2.566499500000
 H   -0.816036423849   -0.815804974265   -3.161499500000
 H    1.056673576151   -3.308798974265    0.819380500000
