23
0 1 
 C   -0.075115860675   -1.300796688133   -2.844369495359
 C    0.221884139325   -2.761796688133   -2.499369495359
 H   -0.611115860675   -1.231796688133   -3.792369495359
 H   -0.687115860675   -0.850796688133   -2.064369495359
 H    0.837884139325   -0.709796688133   -2.894369495359
 H    0.805884139325   -2.776796688133   -1.577369495359
 H    0.819660139325   -3.235722688133   -3.291869495359
 H   -0.706842860675   -3.328198688133   -2.336109495359
 C   -1.585115860675    2.515203311867    1.156630504641
 C    1.159884139325   -0.727796688133    0.652630504641
 C    1.362884139325    0.450203311867   -0.020369495359
 C    0.086884139325   -0.872796688133    1.493630504641
 C    0.462884139325    1.501203311867    0.150630504641
 C   -0.827115860675    0.170203311867    1.652630504641
 C   -0.632115860675    1.364203311867    0.986630504641
 H    1.861884139325   -1.533796688133    0.513630504641
 H    2.208884139325    0.551203311867   -0.683369495359
 H   -0.061115860675   -1.804796688133    2.022630504641
 H    0.630884139325    2.432203311867   -0.373369495359
 H   -1.677115860675    0.055203311867    2.308630504641
 H   -2.599115860675    2.132203311867    1.155630504641
 H   -1.492115860675    3.156203311867    0.278630504641
 H   -1.413728860675    3.122203311867    2.057840504641
