35
0 1 
 C    2.796420356784   -3.101760959346    3.204112978173
 C   -0.280579643216   -1.246760959346    2.002112978173
 C    1.002420356784   -1.237760959346    2.612112978173
 C    1.482420356784   -2.601760959346    2.645112978173
 C    0.502420356784   -3.351760959346    2.068112978173
 C   -1.026579643216   -0.087760959346    1.804112978173
 C   -0.482579643216    1.109239040654    2.235112978173
 C    0.780420356784    1.152239040654    2.841112978173
 C    1.524420356784   -0.009760959346    3.040112978173
 N   -0.551579643216   -2.550760959346    1.685112978173
 H   -2.003579643216   -0.130760959346    1.346112978173
 H   -1.040579643216    2.027239040654    2.101112978173
 H   -1.390579643216   -2.892760959346    1.232112978173
 H    1.179420356784    2.102239040654    3.169112978173
 H    0.550420356784   -4.426760959346    1.933112978173
 H    2.489420356784    0.024239040654    3.516112978173
 H    3.608420356784   -2.618760959346    2.660112978173
 H    2.866420356784   -4.167760959346    3.015112978173
 H    2.929430356784   -2.912980959346    4.279602978173
 C    0.031420356784    4.321239040654   -2.976887021827
 C   -1.195579643216    0.948239040654   -1.753887021827
 C   -1.067579643216    0.178239040654   -2.897887021827
 C   -0.844579643216    2.282239040654   -1.779887021827
 C   -0.346579643216    2.861239040654   -2.947887021827
 C   -0.582579643216    0.737239040654   -4.072887021827
 C   -0.224579643216    2.074239040654   -4.092887021827
 O   -1.427579643216   -1.131760959346   -2.858887021827
 H   -1.560579643216    0.496239040654   -0.845887021827
 H   -0.943579643216    2.878239040654   -0.882887021827
 H   -0.461579643216    0.136239040654   -4.962887021827
 H   -1.138579643216   -1.611760959346   -3.642887021827
 H    0.910420356784    4.449239040654   -3.610887021827
 H    0.303420356784    4.641239040654   -1.971887021827
 H    0.174420356784    2.507239040654   -4.999887021827
 H   -0.784132643216    4.955718040654   -3.354125021827
