27
0 1 
 C    1.539199111046    2.782913590040    0.438821621906
 C   -0.460800888954   -0.349086409960    1.219821621906
 C   -0.125800888954    0.978913590040    0.982821621906
 C    0.515199111046   -1.332086409960    1.130821621906
 C    1.183199111046    1.339913590040    0.673821621906
 C    1.824199111046   -0.987086409960    0.812821621906
 C    2.155199111046    0.344913590040    0.587821621906
 O    0.194199111046   -2.638086409960    1.352821621906
 H   -1.479800888954   -0.614086409960    1.467821621906
 H   -0.892800888954    1.740913590040    1.047821621906
 H   -0.742800888954   -2.749086409960    1.548821621906
 H    2.572199111046   -1.761086409960    0.746821621906
 H    2.546199111046    2.965913590040    0.814821621906
 H    0.857199111046    3.403913590040    1.022821621906
 H    3.177199111046    0.610913590040    0.347821621906
 H    1.485929111046    3.088838590040   -0.616437978094
 C   -2.484800888954   -0.181086409960   -1.907178378094
 C   -2.300800888954    1.314913590040   -2.162178378094
 C   -1.396800888954   -1.006086409960   -2.596178378094
 H   -2.444800888954   -0.357086409960   -0.832178378094
 H   -3.457800888954   -0.491086409960   -2.277178378094
 H   -1.295800888954    1.569913590040   -1.824178378094
 H   -1.464800888954   -0.867086409960   -3.677178378094
 H   -0.428800888954   -0.641086409960   -2.256178378094
 H   -3.040710888954    1.920565590040   -1.618373378094
 H   -2.369550888954    1.528409590040   -3.239068378094
 H   -1.437290888954   -2.083293409960   -2.377122378094
