37
0 1 
 C    0.159436079825    1.297019277619   -2.167150632275
 C    0.021436079825    1.180019277619   -3.690150632275
 C    0.975436079825    0.224019277619   -1.493150632275
 C    2.270436079825    0.307019277619   -1.074150632275
 C    0.523436079825   -1.090980722381   -1.123150632275
 C    1.604436079825   -1.751980722381   -0.481150632275
 C   -0.690563920175   -1.770980722381   -1.259150632275
 C    1.503436079825   -3.046980722381    0.006849367725
 C   -0.793563920175   -3.074980722381   -0.774150632275
 C    0.293436079825   -3.702980722381   -0.151150632275
 N    2.649436079825   -0.866980722381   -0.464150632275
 H    0.574436079825    2.274019277619   -1.914150632275
 H   -0.838563920175    1.255019277619   -1.728150632275
 H   -0.158563920175    0.134019277619   -3.917150632275
 H    2.901436079825    1.183019277619   -1.190150632275
 H    3.558436079825   -1.023980722381   -0.043150632275
 H   -1.530563920175   -1.289980722381   -1.738150632275
 H    2.341436079825   -3.523980722381    0.494849367725
 H   -1.730563920175   -3.602980722381   -0.877150632275
 H    0.185436079825   -4.715980722381    0.215849367725
 H    0.943536079825    1.526849277619   -4.179480632275
 H   -0.843553920175    1.773029277619   -4.022010632275
 C    1.011436079825    2.651019277619    1.764849367725
 C   -0.567563920175    0.713019277619    1.535849367725
 C   -0.365563920175    2.060019277619    1.811849367725
 C   -1.843563920175    0.166019277619    1.583849367725
 C   -1.450563920175    2.846019277619    2.188849367725
 C   -2.926563920175    0.959019277619    1.946849367725
 C   -2.729563920175    2.296019277619    2.259849367725
 H    0.272436079825    0.085019277619    1.283849367725
 H   -1.989563920175   -0.879980722381    1.349849367725
 H    0.941436079825    3.656019277619    1.347849367725
 H    1.633436079825    2.063019277619    1.089849367725
 H   -1.304563920175    3.890019277619    2.428849367725
 H   -3.920563920175    0.533019277619    1.993849367725
 H   -3.566563920175    2.911019277619    2.558849367725
 H    1.493946079825    2.699269277619    2.752199367725
