26
0 1 
 C    1.689113640223    0.851094248694   -0.228033118361
 C    2.960113640223    0.011094248694   -0.031033118361
 C    1.544113640223    1.867094248694    0.883966881639
 C    1.679113640223    1.532094248694   -1.594033118361
 H    0.838113640223    0.176094248694   -0.176033118361
 H    2.861113640223   -0.519905751306    0.916966881639
 H    2.293113640223    2.655094248694    0.794966881639
 H    0.554113640223    2.320094248694    0.849966881639
 H    1.650113640223    1.374094248694    1.850966881639
 H    2.498113640223    2.245094248694   -1.660033118361
 H    1.850113640223    0.769094248694   -2.333033118361
 H    3.869653640223    0.629424248694   -0.010823118361
 H    3.074613640223   -0.756315751306   -0.810763118361
 H    0.735473640223    2.038424248694   -1.845383118361
 C   -1.739886359777   -0.870905751306   -0.103033118361
 C   -3.040886359777   -1.575905751306   -0.526033118361
 C   -2.037886359777    0.203094248694    0.932966881639
 O   -0.869886359777   -1.792905751306    0.527966881639
 H   -1.244886359777   -0.432905751306   -0.970033118361
 H   -3.525886359777   -1.957905751306    0.373966881639
 H   -2.629886359777   -0.206905751306    1.751966881639
 H   -1.103886359777    0.594094248694    1.333966881639
 H   -2.580886359777    1.026094248694    0.468966881639
 H   -1.349886359777   -2.243905751306    1.231966881639
 H   -2.810526359777   -2.411425751306   -1.203413118361
 H   -3.720326359777   -0.867545751306   -1.022603118361
