16
0 1 
 C    1.529413767227    1.012664566949    1.206695052990
 C    0.383413767227    1.103664566949    2.207695052990
 H    2.392413767227    1.564664566949    1.572695052990
 H    1.803413767227   -0.031335433051    1.055695052990
 H    1.223413767227    1.427664566949    0.248695052990
 H   -0.496586232773    0.622664566949    1.782695052990
 H    0.179039767227    2.157804566949    2.446485052990
 H    0.630067767227    0.552664566949    3.127235052990
 C   -0.283586232773   -0.968335433051   -1.366304947010
 C   -1.628586232773   -1.143335433051   -2.050304947010
 H   -0.063586232773    0.084664566949   -1.212304947010
 H   -0.296586232773   -1.465335433051   -0.396304947010
 H    0.502413767227   -1.409335433051   -1.979304947010
 H   -2.401586232773   -0.748335433051   -1.390304947010
 H   -1.652150232773   -0.599935433051   -3.006424947010
 H   -1.828067232773   -2.211315433051   -2.222424947010
