19
0 1 
 C   -1.394588375185   -0.252142708025    1.876220654647
 C   -2.362588375185    0.765857291975    2.507220654647
 H   -1.586588375185   -1.266142708025    2.228220654647
 H   -1.539588375185   -0.254142708025    0.797220654647
 H   -0.364588375185    0.024857291975    2.100220654647
 H   -3.366588375185    0.531857291975    2.174220654647
 H   -2.352564375185    0.693547291975    3.604795654647
 H   -2.129578375185    1.787797291975    2.173526654647
 C    1.018411624815   -0.283142708025   -1.011779345353
 C    1.087411624815   -1.305142708025   -2.154779345353
 C    1.720411624815    1.056857291975   -1.283779345353
 H   -0.033588375185   -0.082142708025   -0.815779345353
 H    1.446411624815   -0.726142708025   -0.109779345353
 H    2.126411624815   -1.394142708025   -2.468779345353
 H    1.380411624815    1.465857291975   -2.233779345353
 H    0.495374624815   -0.966942708025   -3.017978645353
 H    0.798837624815   -2.310842708025   -1.815238345353
 H    1.491948624815    1.782857291975   -0.489599345353
 H    2.811425624815    0.924637291975   -1.330743345353
