17
1 1 
 C    1.491253393613   -1.713467443062    0.782494819120
 C    0.292253393613   -0.876467443062    1.183494819120
 O   -0.491746606387   -0.407467443062    0.363494819120
 N    0.119253393613   -0.711467443062    2.457494819120
 H    1.494253393613   -2.611467443062    1.403494819120
 H    2.391253393613   -1.137467443062    1.008494819120
 H   -0.673746606387   -0.181467443062    2.778494819120
 H    0.796253393613   -1.118467443062    3.096494819120
 H    1.487664693613   -2.007027443062   -0.277605180880
 C   -0.291746606387    2.286532556938   -2.624505180880
 N   -0.954746606387    1.187532556938   -1.897505180880
 H   -0.777746606387    1.212532556938   -0.895505180880
 H   -1.959746606387    1.232532556938   -2.023505180880
 H   -0.656746606387    0.277532556938   -2.240505180880
 H   -0.822746606387    3.223532556938   -2.424505180880
 H   -0.403746606387    2.101532556938   -3.697505180880
 H    0.775932693613    2.472982556938   -2.436635180880
