23
0 1 
 C    1.233595777286    0.447243030695   -0.868023745116
 C    0.983595777286   -0.519756969305   -2.033023745116
 C    1.820595777286   -0.232756969305    0.414976254884
 C    2.103595777286    1.595243030695   -1.322023745116
 H    0.280595777286    0.877243030695   -0.575023745116
 H    0.263595777286   -1.263756969305   -1.683023745116
 H    2.854595777286   -0.504756969305    0.212976254884
 H    1.794595777286    0.469243030695    1.249976254884
 H    1.231595777286   -1.117756969305    0.666976254884
 H    1.593595777286    2.186243030695   -2.083023745116
 H    2.293595777286    2.254243030695   -0.472023745116
 H    3.064595777286    1.237243030695   -1.696023745116
 H    1.905875777286   -1.016947069305   -2.367988745116
 H    0.497445777286    0.028410530695   -2.853492745116
 C   -1.887404222714    0.172243030695    1.236976254884
 C   -1.936404222714   -0.776756969305    2.426976254884
 O   -1.959404222714   -0.561756969305    0.041976254884
 H   -2.687404222714    0.907243030695    1.298976254884
 H   -0.938404222714    0.706243030695    1.255976254884
 H   -1.259404222714   -1.612756969305    2.233976254884
 H   -2.834404222714   -0.961756969305   -0.068023745116
 H   -2.957644222714   -1.155326569305    2.581096254884
 H   -1.600624222714   -0.279195669305    3.348756254884
