29
0 1 
 C    2.601572484817   -0.692886753305   -1.515430413669
 C   -1.039427515183   -1.138886753305   -0.609430413669
 C   -1.682427515183   -0.728886753305   -1.773430413669
 C    0.361572484817   -1.131886753305   -0.546430413669
 C    1.116572484817   -0.711886753305   -1.626430413669
 C   -0.924427515183   -0.298886753305   -2.876430413669
 C    0.476572484817   -0.290886753305   -2.794430413669
 H   -1.617427515183   -1.463886753305    0.243569586331
 H   -2.763427515183   -0.744886753305   -1.821430413669
 H    0.871572484817   -1.451886753305    0.350569586331
 H   -1.422427515183    0.024113246695   -3.783430413669
 H    2.994572484817   -0.882886753305   -2.509430413669
 H    2.885572484817   -1.519886753305   -0.860430413669
 H    1.069572484817    0.043113246695   -3.634430413669
 H    2.993452484817    0.263913246695   -1.140000413669
 C   -0.139427515183    1.037113246695    2.311569586331
 C    0.892572484817    1.864113246695    3.090569586331
 C   -0.445427515183   -0.256886753305    3.127569586331
 C   -1.392427515183    1.872113246695    2.040569586331
 H    0.267572484817    0.770113246695    1.337569586331
 H    0.466572484817    2.111113246695    4.066569586331
 H   -0.848427515183    0.006113246695    4.107569586331
 H   -1.170427515183   -0.870886753305    2.594569586331
 H    0.468572484817   -0.838886753305    3.263569586331
 H   -1.128427515183    2.752113246695    1.452569586331
 H   -2.112427515183    1.275113246695    1.482569586331
 H   -1.832427515183    2.187113246695    2.985569586331
 H    1.168392484817    2.771713246695    2.533689586331
 H    1.789722484817    1.257213246695    3.282409586331
