23
0 1 
 C   -2.672785195838   -0.266126764893   -1.217414112198
 C   -4.073785195838   -0.683126764893   -0.781414112198
 H   -2.436785195838   -0.660126764893   -2.201414112198
 H   -2.595785195838    0.819873235107   -1.230414112198
 H   -1.944785195838   -0.653126764893   -0.506414112198
 H   -4.169785195838   -0.343126764893    0.250585887802
 H   -4.186355195838   -1.777256764893   -0.795754112198
 H   -4.860955195838   -0.168846764893   -1.352274112198
 C    1.532214804162   -2.204126764893   -0.111414112198
 C    0.517214804162    1.424873235107   -0.594414112198
 C    0.771214804162    0.076873235107   -0.836414112198
 C    0.788214804162    1.939873235107    0.629585887802
 C    1.259214804162   -0.764126764893    0.166585887802
 C    1.260214804162    1.127873235107    1.658585887802
 C    1.513214804162   -0.227126764893    1.418585887802
 H    0.128214804162    2.057873235107   -1.381414112198
 H    0.567214804162   -0.326126764893   -1.819414112198
 H    0.617214804162    2.991873235107    0.816585887802
 H    1.455214804162    1.551873235107    2.634585887802
 H    2.413214804162   -2.513126764893    0.453585887802
 H    1.772214804162   -2.316126764893   -1.170414112198
 H    1.894214804162   -0.852126764893    2.214585887802
 H    0.691130804162   -2.870226764893    0.131265887802
