20
0 1 
 C    1.896650011270   -2.069954179184   -1.114422817667
 C    2.102650011270   -2.724954179184   -2.476422817667
 H    2.103650011270   -0.999954179184   -1.171422817667
 H    0.868650011270   -2.216954179184   -0.779422817667
 H    2.568650011270   -2.521954179184   -0.383422817667
 H    1.916650011270   -3.790954179184   -2.345422817667
 H    3.147340011270   -2.595217179184   -2.795485817667
 H    1.355500011270   -2.356428179184   -3.194723817667
 C   -1.783349988730   -0.062954179184   -1.044422817667
 C    0.181650011270    1.185045820816    0.094577182333
 C   -1.014349988730    0.538045820816    0.094577182333
 C   -0.662349988730    1.310045820816    2.124577182333
 N    0.377650011270    1.661045820816    1.374577182333
 N   -1.520349988730    0.625045820816    1.375577182333
 H    0.825650011270    1.333045820816   -0.762422817667
 H    1.166650011270    2.210045820816    1.698577182333
 H   -2.253349988730   -0.993954179184   -0.727422817667
 H   -1.078349988730   -0.284954179184   -1.824422817667
 H   -0.792349988730    1.554045820816    3.172577182333
 H   -2.535249988730    0.626163820816   -1.456450817667
