16
-1 1 
 C   -0.317028443090    2.179622669686    1.508474304142
 C    1.093971556910    1.658622669686    1.634474304142
 O    1.951971556910    2.294622669686    2.242474304142
 N    1.350971556910    0.491622669686    1.077474304142
 H    2.287971556910    0.128622669686    1.148474304142
 H    0.675971556910    0.046622669686    0.455474304142
 H   -0.918028443090    1.453622669686    0.968474304142
 H   -0.327028443090    3.096622669686    0.930474304142
 H   -0.769991443090    2.356332669686    2.495184304142
 C   -2.256028443090   -1.877377330314   -0.922525695858
 C   -0.949028443090   -1.619377330314   -1.635525695858
 O   -0.129028443090   -0.786377330314   -1.171525695858
 O   -0.753028443090   -2.273377330314   -2.686525695858
 H   -2.404028443090   -2.952377330314   -0.796525695858
 H   -3.063028443090   -1.499377330314   -1.554525695858
 H   -2.321897443090   -1.383717330314    0.058274304142
