26
0 1 
 C   -1.650161224818    2.216949097610   -1.862954718891
 C   -1.200161224818   -1.236050902390   -0.314954718891
 C   -1.004161224818   -0.920050902390    1.024045281109
 C   -1.407161224818   -0.220050902390   -1.243954718891
 C   -1.414161224818    1.117949097610   -0.847954718891
 C   -1.015161224818    0.411949097610    1.431045281109
 C   -1.231161224818    1.420949097610    0.501045281109
 H   -1.195161224818   -2.269050902390   -0.635954718891
 H   -0.840161224818   -1.706050902390    1.749045281109
 H   -1.552161224818   -0.475050902390   -2.284954718891
 H   -0.868161224818    0.658949097610    2.474045281109
 H   -2.628161224818    2.646949097610   -1.675954718891
 H   -1.678161224818    1.779949097610   -2.862954718891
 H   -1.269161224818    2.444949097610    0.831045281109
 H   -0.890901224818    3.012809097610   -1.851472718891
 C    2.574838775182   -0.667050902390   -0.074954718891
 C    2.835838775182    0.166949097610    1.196045281109
 C    2.643838775182   -2.177050902390    0.202045281109
 H    1.553838775182   -0.438050902390   -0.379954718891
 H    3.179838775182   -0.404050902390   -0.929954718891
 H    2.030838775182   -0.064050902390    1.898045281109
 H    3.664838775182   -2.481050902390    0.438045281109
 H    2.015838775182   -2.386050902390    1.071045281109
 H    2.783238775182    1.245209097610    0.984901281109
 H    3.760448775182   -0.151070902390    1.699987781109
 H    2.263658775182   -2.777560902390   -0.637512718891
