26
-1 1 
 C   -0.682336749400    2.907232976637   -0.665663603258
 C   -1.198336749400    4.350232976637   -0.662663603258
 C    0.608663250600    2.740232976637    0.096336396742
 O    1.679663250600    3.042232976637   -0.474663603258
 O    0.555663250600    2.274232976637    1.244336396742
 H   -1.459336749400    2.265232976637   -0.253663603258
 H   -0.494336749400    2.568232976637   -1.675663603258
 H   -1.538336749400    4.574232976637    0.349336396742
 H   -2.030981749400    4.435010976637   -1.376467603258
 H   -0.409793749400    5.073063976637   -0.919012603258
 C   -0.883336749400   -3.961767023363   -2.070663603258
 C   -0.768336749400   -0.830767023363    0.130336396742
 C    0.218663250600   -1.188767023363    1.053336396742
 C   -1.134336749400   -1.723767023363   -0.879663603258
 C   -0.530336749400   -2.984767023363   -0.970663603258
 C    0.831663250600   -2.441767023363    0.965336396742
 C    0.449663250600   -3.330767023363   -0.033663603258
 O    0.589663250600   -0.298767023363    2.023336396742
 H   -1.250336749400    0.128232976637    0.218336396742
 H   -1.875336749400   -1.413767023363   -1.592663603258
 H    1.591663250600   -2.725767023363    1.680336396742
 H    1.266663250600   -0.652767023363    2.605336396742
 H   -0.489336749400   -4.952767023363   -1.833663603258
 H   -0.348336749400   -3.614767023363   -2.956663603258
 H    0.928663250600   -4.300767023363   -0.089663603258
 H   -1.952831749400   -4.044207023363   -2.314354603258
