24
0 1 
 C    3.535096325012    0.021053113371    0.432286274131
 C    3.246096325012   -0.016946886629    1.949286274131
 H    2.617096325012    0.202053113371   -0.125713725869
 H    4.247096325012    0.812053113371    0.201286274131
 H    3.959096325012   -0.931946886629    0.115286274131
 H    4.177096325012   -0.139946886629    2.498286274131
 H    2.539986325012   -0.828536886629    2.178916274131
 H    2.779716325012    0.945703113371    2.205796274131
 C   -1.011903674988    2.780053113371   -1.317713725869
 C    0.080096325012   -0.870946886629   -0.729713725869
 C    0.033096325012    0.453053113371   -1.222713725869
 C   -0.938903674988   -1.297946886629    0.123286274131
 C   -0.999903674988    1.337053113371   -0.843713725869
 C   -1.910903674988   -0.421946886629    0.561286274131
 C   -1.967903674988    0.888053113371    0.075286274131
 O   -0.897903674988   -2.553946886629    0.619286274131
 H    0.877096325012   -1.536946886629   -1.029713725869
 H    0.814096325012    0.799053113371   -1.881713725869
 H   -0.159903674988   -3.060946886629    0.265286274131
 H   -2.539903674988   -0.839946886629    1.306286274131
 H   -1.990903674988    3.227053113371   -1.139713725869
 H   -0.827903674988    2.791053113371   -2.390713725869
 H   -2.780903674988    1.537053113371    0.354286274131
 H   -0.233738674988    3.367043113371   -0.807903725869
