28
0 1 
 C   -0.152506344501   -2.398395997448   -1.448612908702
 C   -0.366506344501   -2.034395997448   -2.919612908702
 C    1.294493655499   -2.703395997448   -1.128612908702
 O    2.185493655499   -1.895395997448   -1.375612908702
 N    1.536493655499   -3.876395997448   -0.566612908702
 H   -0.453506344501   -1.556395997448   -0.832612908702
 H   -0.779506344501   -3.248395997448   -1.181612908702
 H    0.220493655499   -1.143395997448   -3.144612908702
 H    2.468493655499   -4.068395997448   -0.216612908702
 H    0.786493655499   -4.521395997448   -0.377612908702
 H   -1.429478344501   -1.811205997448   -3.093622908702
 H   -0.002765344501   -2.831605997448   -3.584554908702
 C    1.661493655499    2.390604002552    2.730387091298
 C   -1.068506344501    0.432604002552    0.948387091298
 C   -1.682506344501    1.437604002552    0.201387091298
 C    0.022493655499    0.746604002552    1.754387091298
 C    0.495493655499    2.059604002552    1.838387091298
 C   -1.221506344501    2.753604002552    0.275387091298
 C   -0.136506344501    3.060604002552    1.095387091298
 O   -2.740506344501    1.158604002552   -0.604612908702
 H   -1.452506344501   -0.574395997448    0.912387091298
 H    0.504493655499   -0.034395997448    2.322387091298
 H   -1.691506344501    3.532604002552   -0.308612908702
 H   -3.006506344501    1.911604002552   -1.139612908702
 H    1.989493655499    1.487604002552    3.242387091298
 H    1.310493655499    3.087604002552    3.492387091298
 H    0.217493655499    4.082604002552    1.154387091298
 H    2.519428655499    2.835784002552    2.205253091298
