17
0 1 
 C    0.617752231948   -1.286881511631   -2.183114884248
 C   -0.242247768052   -0.980881511631   -0.975114884248
 O   -1.076247768052   -0.047881511631   -0.949114884248
 N   -0.014247768052   -1.774881511631    0.056885115752
 H   -0.013247768052   -1.223881511631   -3.071114884248
 H    1.018752231948   -2.300881511631   -2.134114884248
 H   -0.582247768052   -1.663881511631    0.880885115752
 H    0.650752231948   -2.533881511631   -0.011114884248
 H    1.440922231948   -0.564171511631   -2.283574884248
 C   -0.312247768052    1.850118488369    1.618885115752
 C    1.000752231948    2.227118488369    2.305885115752
 H   -0.430247768052    2.386118488369    0.675885115752
 H   -0.319247768052    0.783118488369    1.401885115752
 H   -1.149247768052    2.077118488369    2.281885115752
 H    1.806752231948    2.126118488369    1.578885115752
 H    0.981262231948    3.256948488369    2.691981115752
 H    1.205622231948    1.532918488369    3.134207115752
