30
0 1 
 C    0.118160749381   -1.068383655029   -2.170785604866
 C   -0.472839250619   -2.430383655029   -2.618785604866
 C   -0.503839250619   -0.492383655029   -0.895785604866
 C   -1.665839250619    0.218616344971   -0.785785604866
 C   -0.000839250619   -0.643383655029    0.441214395134
 C   -0.912839250619    0.006616344971    1.317214395134
 C    1.134160749381   -1.264383655029    0.991214395134
 C   -0.730839250619    0.062616344971    2.689214395134
 C    1.318160749381   -1.223383655029    2.375214395134
 C    0.394160749381   -0.560383655029    3.212214395134
 N   -1.914839250619    0.519616344971    0.539214395134
 H    1.199160749381   -1.141383655029   -2.006785604866
 H   -0.060839250619   -0.351383655029   -2.972785604866
 H    0.039160749381   -2.764383655029   -3.525785604866
 H   -2.239839250619    0.456616344971   -1.676785604866
 H   -2.710839250619    1.040616344971    0.890214395134
 H    1.868160749381   -1.771383655029    0.376214395134
 H   -1.458839250619    0.578616344971    3.303214395134
 H    2.186160749381   -1.712383655029    2.791214395134
 H    0.559160749381   -0.534383655029    4.280214395134
 H   -1.547989250619   -2.328483655029   -2.827775604866
 H   -0.293229250619   -3.189383655029   -1.843125604866
 C    1.214160749381    2.440616344971   -1.692785604866
 C    1.795160749381    3.764616344971   -2.231785604866
 H    1.495160749381    2.310616344971   -0.646785604866
 H    0.123160749381    2.463616344971   -1.767785604866
 H    1.595160749381    1.602616344971   -2.275785604866
 H    1.496160749381    3.879616344971   -3.274785604866
 H    2.892450749381    3.799116344971   -2.162785604866
 H    1.377150749381    4.606416344971   -1.660255604866
