20
0 1 
 C   -0.180150165287   -1.637044529294   -1.639336231894
 C    0.472849834713   -0.249044529294   -1.616336231894
 O    1.532849834713   -0.060044529294   -1.024336231894
 N   -0.109150165287    0.703955470706   -2.328336231894
 H   -0.883150165287   -1.682044529294   -2.474336231894
 H   -0.747150165287   -1.794044529294   -0.721336231894
 H    0.348849834713    1.602955470706   -2.380336231894
 H   -0.926150165287    0.508955470706   -2.888336231894
 H    0.573129834713   -2.426434529294   -1.778726231894
 C   -0.534150165287    0.272955470706    1.712663768106
 C    0.677849834713    0.377955470706    2.620663768106
 C   -1.835150165287    0.532955470706    2.336663768106
 H   -0.396150165287    0.996955470706    0.907663768106
 H   -0.554150165287   -0.727044529294    1.278663768106
 H    0.660849834713    1.345955470706    3.126663768106
 H   -2.023150165287   -0.204044529294    3.118663768106
 H   -1.830150165287    1.526955470706    2.786663768106
 H    1.577039834713    0.309485470706    1.990773768106
 H    0.688009834713   -0.403444529294    3.394813768106
 H   -2.644010165287    0.478985470706    1.593133768106
