15
0 1 
 C    1.155065152370   -0.583800529642    1.079773608517
 C    1.196065152370   -0.407800529642   -0.436226391483
 O    0.143065152370   -0.060800529642   -1.010226391483
 O    2.254065152370   -0.629800529642   -1.066226391483
 H    0.509065152370   -1.433800529642    1.304773608517
 H    0.702065152370    0.303199470358    1.525773608517
 H    2.135705152370   -0.747710529642    1.550393608517
 C   -2.202934847630    1.533199470358    0.929773608517
 N   -2.166934847630    0.102199470358    0.416773608517
 H   -2.929934847630   -0.089800529642   -0.221226391483
 H   -1.300934847630   -0.074800529642   -0.093226391483
 H   -2.213934847630   -0.545800529642    1.203773608517
 H   -1.825934847630    2.210199470358    0.155773608517
 H   -1.552934847630    1.626199470358    1.807773608517
 H   -3.223744847630    1.843939470358    1.196943608517
