26
0 1 
 C    0.080579934123   -1.810925983483    2.070129766729
 C   -0.278420065877   -2.719925983483    3.240129766729
 H    1.119579934123   -1.486925983483    2.128129766729
 H   -0.071420065877   -2.340925983483    1.132129766729
 H   -0.561420065877   -0.930925983483    2.068129766729
 H   -1.342420065877   -2.955925983483    3.184129766729
 H   -0.068770065877   -2.219065983483    4.196779766729
 H    0.299869934123   -3.653545983483    3.177419766729
 C    1.789579934123   -0.415925983483   -0.720870233271
 C    2.442579934123   -0.173925983483   -2.085870233271
 C    0.473579934123    0.302074016517   -0.584870233271
 C   -0.684420065877   -0.346925983483   -0.955870233271
 C    0.408579934123    1.629074016517   -0.141870233271
 C   -1.911420065877    0.335074016517   -0.846870233271
 C   -0.808420065877    2.317074016517   -0.035870233271
 C   -1.963420065877    1.663074016517   -0.430870233271
 H    1.656579934123   -1.486925983483   -0.558870233271
 H    2.441579934123   -0.046925983483    0.071129766729
 H    2.313579934123    0.880074016517   -2.317870233271
 H   -0.660420065877   -1.369925983483   -1.305870233271
 H    1.321579934123    2.137074016517    0.138129766729
 H   -2.823420065877   -0.179925983483   -1.100870233271
 H   -0.839420065877    3.342074016517    0.305129766729
 H   -2.905420065877    2.185074016517   -0.407870233271
 H    1.974799934123   -0.773425983483   -2.880717233271
 H    3.517509934123   -0.372175983483   -1.962517233271
