27
0 1 
 C   -1.799000318336   -2.215738474098    0.202188038288
 C    0.298999681664   -0.736738474098   -0.232811961712
 C   -0.333000318336   -1.911738474098    0.272188038288
 C    1.661999681664   -0.800738474098    0.143188038288
 C    0.623999681664   -2.626738474098    0.903188038288
 C   -0.153000318336    0.380261525902   -0.962811961712
 C    0.753999681664    1.390261525902   -1.290811961712
 C    2.091999681664    1.289261525902   -0.902811961712
 C    2.548999681664    0.194261525902   -0.185811961712
 N    1.842999681664   -1.971738474098    0.837188038288
 H   -1.184000318336    0.483261525902   -1.277811961712
 H    0.398999681664    2.247261525902   -1.847811961712
 H    2.780999681664    2.074261525902   -1.164811961712
 H   -1.933000318336   -3.259738474098    0.475188038288
 H   -2.108000318336   -2.080738474098   -0.840811961712
 H    0.348999681664   -3.565738474098    1.366188038288
 H    2.722999681664   -2.286738474098    1.229188038288
 H    3.571999681664    0.078261525902    0.129188038288
 H   -2.351800318336   -1.605308474098    0.931428038288
 C   -2.508000318336    2.974261525902    0.241188038288
 C   -3.907000318336    3.416261525902    0.687188038288
 H   -2.561000318336    1.980261525902   -0.198811961712
 H   -2.126000318336    3.677261525902   -0.500811961712
 H   -1.836000318336    2.956261525902    1.099188038288
 H   -3.840000318336    4.412261525902    1.125188038288
 H   -4.315550318336    2.696361525902    1.411638038288
 H   -4.602970318336    3.480361525902   -0.162231961712
