23
0 1 
 C   -2.165244434309   -1.809071786592   -0.398302549034
 C    0.321755565691    0.594928213408    1.143697450966
 C   -0.268244434309   -0.566071786592    0.665697450966
 C   -0.354244434309    1.806928213408    1.054697450966
 C   -1.539244434309   -0.542071786592    0.104697450966
 C   -1.623244434309    1.846928213408    0.499697450966
 C   -2.213244434309    0.676928213408    0.025697450966
 H    1.311755565691    0.561928213408    1.576697450966
 H    0.268755565691   -1.501071786592    0.731697450966
 H    0.107755565691    2.712928213408    1.417697450966
 H   -2.155244434309    2.784928213408    0.431697450966
 H   -3.248244434309   -1.689071786592   -0.433302549034
 H   -1.948244434309   -2.605071786592    0.311697450966
 H   -3.200244434309    0.718928213408   -0.411302549034
 H   -1.796394434309   -2.102571786592   -1.392182549034
 C    3.434755565691   -0.774071786592   -0.547302549034
 C    3.540755565691   -0.755071786592   -2.074302549034
 H    4.038755565691   -1.581071786592   -0.130302549034
 H    3.798755565691    0.170928213408   -0.145302549034
 H    2.395755565691   -0.912071786592   -0.252302549034
 H    4.586755565691   -0.763071786592   -2.340302549034
 H    3.088313565691   -1.650561786592   -2.525302549034
 H    3.065463565691    0.147338213408   -2.486322549034
