29
1 1 
 C    2.551014667903   -0.286068566985    0.624024948820
 C    1.008014667903    0.034931433015    2.522024948820
 N    1.788014667903   -0.754068566985    1.793024948820
 N    0.872014667903    1.311931433015    2.206024948820
 N    0.354014667903   -0.449068566985    3.560024948820
 H    1.879014667903   -1.718068566985    2.074024948820
 H    1.408014667903    1.692931433015    1.446024948820
 H    0.336014667903    1.922931433015    2.800024948820
 H    0.421014667903   -1.426068566985    3.793024948820
 H   -0.262985332097    0.143931433015    4.090024948820
 H    3.315014667903    0.417931433015    0.962024948820
 H    1.889014667903    0.232931433015   -0.072975051180
 H    3.057404667903   -1.094406566985    0.076154948820
 C   -0.061985332097   -1.083068566985   -4.028975051180
 C   -1.307985332097    0.509931433015   -0.274975051180
 C   -0.564985332097    1.310931433015   -1.141975051180
 C   -1.609985332097   -0.806068566985   -0.622975051180
 C   -0.165985332097    0.790931433015   -2.362975051180
 C   -1.221985332097   -1.296068566985   -1.831975051180
 C   -0.481985332097   -0.519068566985   -2.707975051180
 O   -1.700985332097    1.013931433015    0.932024948820
 H   -0.317985332097    2.329931433015   -0.876975051180
 H   -1.463985332097    1.942931433015    1.024024948820
 H   -2.167985332097   -1.424068566985    0.066024948820
 H    0.405014667903    1.407931433015   -3.045975051180
 H   -1.472985332097   -2.313068566985   -2.098975051180
 H   -0.323985332097   -2.142068566985   -4.078975051180
 H    1.025014667903   -1.013068566985   -4.093975051180
 H   -0.510419332097   -0.565868566985   -4.890025051180
