26
0 1 
 C    1.380586252045   -1.391201799939   -0.320737225801
 C    2.090586252045   -2.001201799939   -1.529737225801
 C    0.425586252045   -0.272201799939   -0.644737225801
 C   -0.789413747955   -0.531201799939   -1.294737225801
 C    0.720586252045    1.033798200061   -0.247737225801
 C   -1.699413747955    0.511798200061   -1.545737225801
 C   -0.174413747955    2.075798200061   -0.507737225801
 C   -1.386413747955    1.812798200061   -1.141737225801
 H    0.816586252045   -2.182201799939    0.178262774199
 H    2.134586252045   -1.036201799939    0.382262774199
 H    1.329586252045   -2.392201799939   -2.203737225801
 H   -1.035413747955   -1.538201799939   -1.597737225801
 H    1.644586252045    1.248798200061    0.265262774199
 H   -2.639413747955    0.302798200061   -2.038737225801
 H    0.064586252045    3.085798200061   -0.200737225801
 H   -2.074413747955    2.623798200061   -1.319737225801
 H    2.739353252045   -2.818591799939   -1.181917225801
 H    2.706922252045   -1.263471799939   -2.064427225801
 C    0.126586252045   -0.876201799939    3.083262774199
 C   -0.962413747955    0.150798200061    3.355262774199
 H   -0.280413747955   -1.873201799939    3.235262774199
 H    0.445586252045   -0.778201799939    2.054262774199
 H    0.998586252045   -0.723201799939    3.715262774199
 H   -0.538413747955    1.142798200061    3.189262774199
 H   -1.322273747955    0.083418200061    4.392552774199
 H   -1.797369747955    0.010078200061    2.653092774199
