24
1 1 
 C    0.463294677441   -1.442291670118    0.020282032996
 C    0.544294677441   -1.734291670118   -1.471717967004
 C    1.214294677441    0.500708329882    1.351282032996
 N    1.424294677441   -0.407291670118    0.413282032996
 N    0.072294677441    0.521708329882    2.014282032996
 N    2.138294677441    1.402708329882    1.612282032996
 H   -0.562705322559   -1.155291670118    0.252282032996
 H    0.696294677441   -2.358291670118    0.569282032996
 H    1.585294677441   -1.934291670118   -1.731717967004
 H    0.208294677441   -0.858291670118   -2.023717967004
 H    2.367294677441   -0.451291670118    0.020282032996
 H   -0.617705322559   -0.190291670118    1.853282032996
 H   -0.086705322559    1.212708329882    2.731282032996
 H    2.991294677441    1.408708329882    1.046282032996
 H    2.004294677441    2.094708329882    2.330282032996
 H   -0.071085322559   -2.605184670118   -1.741617967004
 C   -2.532705322559    0.056708329882   -1.463717967004
 C   -3.206705322559    0.987708329882   -2.445717967004
 H   -2.182705322559   -0.821291670118   -2.001717967004
 H   -1.690705322559    0.567708329882   -0.996717967004
 H   -3.240705322559   -0.252291670118   -0.691717967004
 H   -2.410705322559    1.357708329882   -3.075717967004
 H   -4.003245322559    0.445228129882   -2.976027967004
 H   -3.608265322559    1.885777329882   -1.953557967004
