16
-1 1 
 C   -2.439873666358    1.401772917183    1.186138275150
 O   -1.615873666358    0.296772917183    1.493138275150
 H   -1.348873666358   -0.112227082817    0.643138275150
 H   -3.184873666358    1.511772917183    1.973138275150
 H   -2.972873666358    1.208772917183    0.253138275150
 H   -1.848443666358    2.325116917183    1.098678275150
 C    1.225126333642   -0.701227082817    0.386138275150
 C    2.415126333642    0.232772917183    0.484138275150
 C    0.459126333642   -0.510227082817   -0.904861724850
 O    1.053126333642   -0.011227082817   -1.876861724850
 O   -0.742873666358   -0.857227082817   -0.929861724850
 H    1.594126333642   -1.728227082817    0.427138275150
 H    0.586126333642   -0.566227082817    1.251138275150
 H    2.067126333642    1.260772917183    0.393138275150
 H    3.105126333642    0.023772917183   -0.332861724850
 H    2.964266333642    0.111788917183    1.429558275150
