26
0 1 
 C    1.671152975529    1.443953004579    0.424882235361
 C    3.015152975529    1.680953004579   -0.269117764639
 C    1.270152975529    2.611953004579    1.339882235361
 H    0.897152975529    1.266953004579   -0.322117764639
 H    1.760152975529    0.544953004579    1.035882235361
 H    2.971152975529    2.523953004579   -0.960117764639
 H    2.087152975529    2.898953004579    1.998882235361
 H    3.381402975529    0.763444004579   -0.752895764639
 H    3.790392975529    1.838321004579    0.495240685361
 H    0.985382975529    3.477814004579    0.724094935361
 H    0.443402975529    2.306336004579    1.997969235361
 C   -2.764847024471    0.198953004579    0.972882235361
 C   -1.659847024471   -0.492046995421    0.224882235361
 C   -0.685847024471   -1.212046995421    0.917882235361
 C   -1.588847024471   -0.414046995421   -1.167117764639
 C    0.357152975529   -1.847046995421    0.229882235361
 C   -0.547847024471   -1.049046995421   -1.862117764639
 C    0.428152975529   -1.766046995421   -1.161117764639
 H   -2.987847024471    1.143953004579    0.472882235361
 H   -2.417847024471    0.432953004579    1.980882235361
 H   -0.726847024471   -1.276046995421    1.995882235361
 H   -2.332847024471    0.140953004579   -1.717117764639
 H    1.116152975529   -2.386046995421    0.776882235361
 H   -0.501847024471   -0.978046995421   -2.936117764639
 H    1.239152975529   -2.247046995421   -1.692117764639
 H   -3.685717024471   -0.396438995421    1.059484735361
