37
0 1 
 C   -0.266827729448   -2.597181550951   -1.042966611060
 C   -0.853827729448   -0.417181550951   -2.358966611060
 C   -1.068827729448   -1.793181550951   -2.017966611060
 C   -1.836827729448   -0.057181550951   -3.314966611060
 C   -2.135827729448   -2.205181550951   -2.754966611060
 C    0.075172270552    0.545818449049   -1.957966611060
 C   -0.011827729448    1.827818449049   -2.487966611060
 C   -0.996827729448    2.153818449049   -3.427966611060
 C   -1.919827729448    1.218818449049   -3.852966611060
 N   -2.601827729448   -1.171181550951   -3.533966611060
 H    0.863172270552    0.276818449049   -1.279966611060
 H    0.700172270552    2.583818449049   -2.186966611060
 H   -1.052827729448    3.162818449049   -3.806966611060
 H   -0.921827729448   -3.311181550951   -0.538966611060
 H    0.109172270552   -1.911181550951   -0.282966611060
 H   -2.555827729448   -3.206181550951   -2.724966611060
 H   -3.394827729448   -1.241181550951   -4.162966611060
 H   -2.684827729448    1.471818449049   -4.572966611060
 H    0.586382270552   -3.127111550951   -1.491531611060
 C    1.602172270552    1.331818449049    1.510033388940
 C    3.061172270552    1.729818449049    1.340033388940
 C    1.335172270552    0.599818449049    2.788033388940
 C    1.374172270552   -0.789181550951    2.822033388940
 C    1.074172270552    1.303818449049    3.958033388940
 C    1.131172270552   -1.469181550951    4.010033388940
 C    0.834172270552    0.627818449049    5.147033388940
 C    0.863172270552   -0.759181550951    5.173033388940
 H    0.967172270552    2.218818449049    1.452033388940
 H    1.323172270552    0.671818449049    0.698033388940
 H    3.658172270552    0.840818449049    1.501033388940
 H    1.587172270552   -1.350181550951    1.922033388940
 H    1.042172270552    2.382818449049    3.944033388940
 H    1.149172270552   -2.551181550951    4.028033388940
 H    0.623172270552    1.181818449049    6.049033388940
 H    0.670172270552   -1.288181550951    6.097033388940
 H    3.330962270552    2.481601449049    2.096363388940
 H    3.242022270552    2.079900449049    0.313033388940
