24
0 1 
 C   -0.671756357901    0.067297942707   -2.793006349860
 C   -1.330756357901   -0.571702057293   -4.054006349860
 H    0.391243642099    0.230297942707   -2.974006349860
 H   -1.148756357901    1.022297942707   -2.570006349860
 H   -0.789756357901   -0.597702057293   -1.937006349860
 H   -2.376756357901   -0.761702057293   -3.802006349860
 H   -0.863034357901   -1.542545057293   -4.274686349860
 H   -1.307154357901    0.083444942707   -4.937306349860
 C   -1.849756357901    2.025297942707    0.345993650140
 C   -0.719756357901    1.029297942707    0.620993650140
 C   -1.005756357901   -0.131702057293    1.362993650140
 C    0.599243642099    1.250297942707    0.151993650140
 C   -0.020756357901   -1.037702057293    1.677993650140
 C    1.610243642099    0.321297942707    0.458993650140
 C    1.289243642099   -0.815702057293    1.246993650140
 O    2.176243642099   -1.796702057293    1.610993650140
 H   -2.722756357901    1.483297942707   -0.021006349860
 H   -1.538756357901    2.739297942707   -0.418006349860
 H   -2.017756357901   -0.312702057293    1.703993650140
 H    0.825243642099    2.123297942707   -0.448006349860
 H   -0.267756357901   -1.909702057293    2.265993650140
 H    2.615243642099    0.436297942707    0.087993650140
 H    1.772243642099   -2.471702057293    2.160993650140
 H   -2.108012357901    2.551687842707    1.276703650140
