27
0 1 
 C   -1.725962416584    0.721255985136   -2.661266741923
 C   -1.078962416584    2.082255985136   -2.817266741923
 H   -2.801962416584    0.814255985136   -2.789266741923
 H   -1.332962416584    0.040255985136   -3.416266741923
 H   -1.510962416584    0.310255985136   -1.674266741923
 H    0.004037583416    1.952255985136   -2.882266741923
 H   -1.304582416584    2.731015985136   -1.958076741923
 H   -1.452982416584    2.537398985136   -3.746216741923
 C   -1.044962416584   -2.803744014864    1.485733258077
 C    0.870037583416    0.008255985136   -0.055266741923
 C    0.031037583416   -0.500744014864    0.967733258077
 C   -0.219962416584   -1.865744014864    0.680733258077
 C    0.450037583416   -2.127744014864   -0.479266741923
 C    1.344037583416    1.302255985136   -0.121266741923
 C    0.961037583416    2.155255985136    0.898733258077
 C   -0.352962416584    0.373255985136    1.983733258077
 C    0.133037583416    1.668255985136    1.916733258077
 N    1.099037583416   -1.033744014864   -0.929266741923
 H    1.676037583416   -1.005744014864   -1.763266741923
 H    2.001037583416    1.626255985136   -0.917266741923
 H    0.429037583416   -3.074744014864   -0.985266741923
 H    1.351037583416    3.150255985136    0.962733258077
 H   -0.969962416584    0.038255985136    2.803733258077
 H   -0.967962416584   -2.514744014864    2.535733258077
 H   -0.606962416584   -3.798744014864    1.390733258077
 H   -0.129962416584    2.348255985136    2.717733258077
 H   -2.109292416584   -2.850710014864    1.211883258077
