16
0 1 
 C   -0.913848599094    0.783818608313   -0.815684229586
 C   -2.088848599094    1.389818608313   -1.659684229586
 H   -1.302848599094    0.171818608313   -0.002684229586
 H   -0.281848599094    0.165818608313   -1.452684229586
 H   -0.285848599094    1.573818608313   -0.404684229586
 H   -1.635848599094    1.860818608313   -2.534684229586
 H   -2.615946599094    2.193589608313   -1.124784229586
 H   -2.776023599094    0.616746608313   -2.034054229586
 C    1.911151400906   -0.500181391687    0.985315770414
 C    1.084151400906   -1.681181391687    1.500315770414
 H    2.976151400906   -0.716181391687    1.082315770414
 H    1.693151400906   -0.296181391687   -0.061684229586
 H    1.678151400906    0.403818608313    1.546315770414
 H    0.028151400906   -1.424181391687    1.431315770414
 H    1.331531400906   -1.888640291687    2.551865770414
 H    1.279271400906   -2.569257791687    0.881245770414
