27
0 1 
 C    0.101150788730   -0.529179571673   -3.531983887735
 C    0.399150788730   -1.603179571673   -4.567983887735
 H   -0.490849211270   -0.939179571673   -2.712983887735
 H    1.035150788730   -0.138179571673   -3.130983887735
 H   -0.441849211270    0.293820428327   -3.995983887735
 H    0.894150788730   -1.165179571673   -5.434983887735
 H   -0.530729211270   -2.107079571673   -4.870323887735
 H    1.074980788730   -2.319409571673   -4.077813887735
 C   -2.592849211270    0.570820428327   -0.494983887735
 C   -0.243849211270    0.409820428327    0.545016112265
 C   -1.643849211270    0.139820428327    0.530016112265
 C    0.282150788730   -0.150179571673    1.734016112265
 C   -1.922849211270   -0.555179571673    1.651016112265
 C    0.624150788730    1.084820428327   -0.318983887735
 C    1.977150788730    1.186820428327    0.006016112265
 C    2.465150788730    0.628820428327    1.190016112265
 C    1.633150788730   -0.058179571673    2.057016112265
 N   -0.767849211270   -0.742179571673    2.385016112265
 H    0.250150788730    1.512820428327   -1.236983887735
 H    2.653150788730    1.705820428327   -0.660983887735
 H    3.513150788730    0.725820428327    1.417016112265
 H   -3.408849211270   -0.153179571673   -0.542983887735
 H   -2.088849211270    0.567820428327   -1.461983887735
 H   -2.910849211270   -0.905179571673    1.936016112265
 H   -0.724849211270   -1.235179571673    3.270016112265
 H    2.015150788730   -0.496179571673    2.968016112265
 H   -3.013699211270    1.569270428327   -0.305313887735
