26
0 1 
 C   -2.792219526661    1.099692049229    1.523511249259
 C   -2.853219526661    0.179692049229    2.733511249259
 H   -3.023219526661    2.124692049229    1.800511249259
 H   -1.771219526661    1.087692049229    1.151511249259
 H   -3.478219526661    0.775692049229    0.753511249259
 H   -2.172219526661    0.562692049229    3.490511249259
 H   -3.867099526661    0.150932049229    3.159201249259
 H   -2.516609526661   -0.833017950771    2.466821249259
 C   -0.910219526661    0.496692049229   -1.485488750741
 C   -0.591219526661    1.017692049229   -2.892488750741
 C    0.278780473339   -0.036307950771   -0.729488750741
 C    1.256780473339    0.827692049229   -0.249488750741
 C    0.391780473339   -1.398307950771   -0.471488750741
 C    2.343780473339    0.332692049229    0.460511249259
 C    1.475780473339   -1.897307950771    0.240511249259
 C    2.453780473339   -1.030307950771    0.709511249259
 H   -1.315219526661    1.339692049229   -0.929488750741
 H   -1.675219526661   -0.270307950771   -1.515488750741
 H    0.165780473339    1.793692049229   -2.812488750741
 H    1.176780473339    1.889692049229   -0.435488750741
 H   -0.379219526661   -2.058307950771   -0.826488750741
 H    3.116780473339    1.007692049229    0.790511249259
 H    1.557780473339   -2.959307950771    0.434511249259
 H    3.301780473339   -1.416307950771    1.258511249259
 H   -1.509559526661    1.428532049229   -3.337308750741
 H   -0.158569526661    0.235182049229   -3.533188750741
