34
0 1 
 C    1.136065891656   -0.611443689234   -2.017704681843
 C   -0.058934108344   -0.982443689234   -2.889704681843
 C    1.021065891656    0.702556310766   -1.285704681843
 C   -0.025934108344    0.937556310766   -0.382704681843
 C    1.966065891656    1.725556310766   -1.440704681843
 C   -0.146934108344    2.129556310766    0.319295318157
 C    1.845065891656    2.928556310766   -0.745704681843
 C    0.794065891656    3.139556310766    0.147295318157
 O    0.639065891656    4.315556310766    0.843295318157
 H    1.275065891656   -1.389443689234   -1.265704681843
 H    2.035065891656   -0.597443689234   -2.634704681843
 H   -0.966934108344   -0.891443689234   -2.294704681843
 H   -0.767934108344    0.167556310766   -0.239704681843
 H    2.797065891656    1.584556310766   -2.120704681843
 H   -0.971934108344    2.256556310766    1.007295318157
 H    2.577065891656    3.711556310766   -0.887704681843
 H   -0.172934108344    4.299556310766    1.351295318157
 H    0.039665891656   -2.029653689234   -3.211634681843
 H   -0.141414108344   -0.292903689234   -3.742772681843
 C    0.259065891656   -1.075443689234    2.892295318157
 C   -0.682934108344   -3.295443689234   -0.042704681843
 C    0.045065891656   -2.709443689234    0.994295318157
 C   -1.992934108344   -2.915443689234   -0.276704681843
 C   -0.530934108344   -1.717443689234    1.779295318157
 C   -2.576934108344   -1.939443689234    0.506295318157
 C   -1.855934108344   -1.343443689234    1.536295318157
 H   -0.233934108344   -4.076443689234   -0.627704681843
 H    1.062065891656   -3.027443689234    1.177295318157
 H   -2.565934108344   -3.394443689234   -1.057704681843
 H   -3.607934108344   -1.673443689234    0.360295318157
 H    0.071065891656   -0.005443689234    2.873295318157
 H    1.319065891656   -1.225443689234    2.693295318157
 H   -2.323934108344   -0.580443689234    2.142295318157
 H    0.019455891656   -1.475273689234    3.888645318157
