27
1 1 
 C   -2.923971775581    0.000551016501   -2.920058378365
 C   -0.324971775581    1.140551016501   -0.385058378365
 C    0.753028224419    0.320551016501   -0.713058378365
 C   -1.508971775581    1.046551016501   -1.116058378365
 C   -1.629971775581    0.128551016501   -2.158058378365
 C    0.645028224419   -0.592448983499   -1.750058378365
 C   -0.542971775581   -0.692448983499   -2.462058378365
 O    1.933028224419    0.414551016501   -0.037058378365
 H   -0.230971775581    1.861551016501    0.414941621635
 H   -2.335971775581    1.699551016501   -0.874058378365
 H    1.489028224419   -1.213448983499   -2.004058378365
 H    2.610028224419   -0.150448983499   -0.425058378365
 H   -2.724971775581   -0.033448983499   -3.992058378365
 H   -3.516971775581    0.879551016501   -2.704058378365
 H   -0.624971775581   -1.406448983499   -3.271058378365
 H   -3.515233775581   -0.878778983499   -2.624788378365
 C    0.550028224419   -0.179448983499    3.066941621635
 C    1.051028224419   -1.470448983499    2.458941621635
 N    1.223028224419    0.056551016501    4.368941621635
 H    0.790028224419    0.640551016501    2.379941621635
 H   -0.538971775581   -0.218448983499    3.179941621635
 H    2.115028224419   -1.588448983499    2.673941621635
 H    0.957028224419   -1.438448983499    1.376941621635
 H    2.228028224419    0.128551016501    4.261941621635
 H    0.906028224419    0.923551016501    4.787941621635
 H    1.033028224419   -0.683448983499    5.034941621635
 H    0.502721224419   -2.338178983499    2.854421621635
