19
0 1 
 C   -0.502812332402   -0.854898103221    1.586042990574
 C    0.937187667598   -1.358898103221    1.403042990574
 C   -0.281812332402    0.461101896779    2.353042990574
 H   -1.062812332402   -1.571898103221    2.189042990574
 H   -0.997812332402   -0.688898103221    0.630042990574
 H    0.969187667598   -2.424898103221    1.190042990574
 H    1.421187667598   -0.800898103221    0.600042990574
 H   -0.152812332402    1.299101896779    1.665042990574
 H    1.421787667598   -1.129618103221    2.363562990574
 H    0.644547667598    0.287081896779    2.920112990574
 H   -1.112122332402    0.628611896779    3.054842990574
 C    0.003187667598    0.357101896779   -2.048957009426
 C   -0.195812332402    1.337101896779   -3.197957009426
 H    1.059187667598    0.095101896779   -1.956957009426
 H   -0.330812332402    0.823101896779   -1.121957009426
 H   -0.580812332402   -0.548898103221   -2.220957009426
 H   -1.252812332402    1.579101896779   -3.251957009426
 H    0.102797667598    0.868261896779   -4.147177009426
 H    0.348307667598    2.281181896779   -3.047437009426
