27
0 1 
 C   -2.679910965514    0.330190525275    0.761299139958
 C   -2.070910965514    0.534190525275    2.168299139958
 C   -2.860910965514   -1.156809474725    0.516299139958
 O   -1.938910965514   -1.933809474725    0.435299139958
 N   -4.098910965514   -1.630809474725    0.553299139958
 H   -3.629910965514    0.847190525275    0.677299139958
 H   -2.003910965514    0.738190525275    0.009299139958
 H   -1.919910965514    1.600190525275    2.333299139958
 H   -1.089910965514    0.058190525275    2.195299139958
 H   -4.238910965514   -2.621809474725    0.440299139958
 H   -4.881910965514   -0.994809474725    0.666299139958
 H   -2.693530965514    0.121748525275    2.975909139958
 C    4.148089034486    1.396190525275    0.499299139958
 C    0.836089034486   -0.240809474725   -0.270700860042
 C    0.658089034486    0.062190525275   -1.610700860042
 C    1.967089034486    0.181190525275    0.382299139958
 C    2.956089034486    0.908190525275   -0.246700860042
 C    1.638089034486    0.759190525275   -2.280700860042
 C    2.787089034486    1.201190525275   -1.605700860042
 H    0.105089034486   -0.811809474725    0.267299139958
 H   -0.235910965514   -0.257809474725   -2.128700860042
 H    2.079089034486   -0.060809474725    1.430299139958
 H    1.523089034486    0.972190525275   -3.332700860042
 H    3.964089034486    1.332190525275    1.573299139958
 H    4.258089034486    2.452190525275    0.257299139958
 H    3.540089034486    1.767190525275   -2.132700860042
 H    5.088819034486    0.879256525275    0.258879139958
