35
0 1 
 C   -2.858101954915    0.480320891970    0.244214097693
 C   -0.626101954915   -0.665679108030   -0.174785902307
 C   -1.887101954915   -0.639679108030    0.333214097693
 C   -0.824101954915   -2.576679108030    0.985214097693
 C   -2.047101954915   -1.857679108030    1.079214097693
 C   -0.630101954915   -3.807679108030    1.604214097693
 C   -3.098101954915   -2.414679108030    1.824214097693
 C   -1.684101954915   -4.337679108030    2.332214097693
 C   -2.905101954915   -3.654679108030    2.443214097693
 N    0.015898045085   -1.817679108030    0.213214097693
 H   -0.186101954915    0.131320891970   -0.762785902307
 H    0.964898045085   -2.056679108030   -0.039785902307
 H   -2.266101954915    1.389320891970    0.243214097693
 H   -3.435101954915    0.473320891970    1.170214097693
 H    0.303898045085   -4.340679108030    1.502214097693
 H   -4.044101954915   -1.898679108030    1.901214097693
 H   -1.571101954915   -5.301679108030    2.806214097693
 H   -3.713101954915   -4.130679108030    2.976214097693
 H   -3.542291954915    0.504760891970   -0.616765902307
 C    1.205898045085    5.232320891970   -2.158785902307
 C    2.379898045085    1.285320891970   -0.883785902307
 C    2.010898045085    1.511320891970   -2.210785902307
 C    2.354898045085    2.333320891970    0.035214097693
 C    1.621898045085    2.785320891970   -2.616785902307
 C    1.961898045085    3.608320891970   -0.380785902307
 C    1.593898045085    3.845320891970   -1.707785902307
 O    2.765898045085    0.038320891970   -0.491785902307
 H    2.024898045085    0.715320891970   -2.932785902307
 H    2.808898045085   -0.578679108030   -1.221785902307
 H    2.652898045085    2.156320891970    1.058214097693
 H    1.350898045085    2.946320891970   -3.649785902307
 H    1.966898045085    4.423320891970    0.332214097693
 H    1.725898045085    5.449320891970   -3.091785902307
 H    1.562898045085    5.960320891970   -1.427785902307
 H    0.126058045085    5.384120891970   -2.303385902307
