20
0 1 
 C    3.975757824742    1.116462043707   -0.418069142536
 C    1.681757824742    0.178462043707   -0.623069142536
 N    0.861757824742   -0.636537956293   -1.257069142536
 N    2.948757824742    0.267462043707   -1.025069142536
 N    1.212757824742    0.876462043707    0.398930857464
 H    1.170757824742   -1.216537956293   -2.020069142536
 H   -0.094242175258   -0.684537956293   -0.903069142536
 H    3.235757824742   -0.331537956293   -1.786069142536
 H    1.813757824742    1.454462043707    0.983930857464
 H    0.233757824742    0.729462043707    0.632930857464
 H    4.966757824742    0.712462043707   -0.634069142536
 H    3.854757824742    1.152462043707    0.665930857464
 H    3.893447824742    2.131162043707   -0.834730142536
 C   -3.368242175258    0.323462043707    1.720930857464
 C   -2.631242175258   -0.491537956293    0.672930857464
 O   -1.502242175258   -0.115537956293    0.304930857464
 O   -3.166242175258   -1.519537956293    0.198930857464
 H   -3.679242175258   -0.332537956293    2.538930857464
 H   -4.273242175258    0.736462043707    1.274930857464
 H   -2.753392175258    1.131532043707    2.143998857464
