26
0 1 
 C    1.788373612335   -2.850090598987   -1.569135660931
 C    3.159373612335   -2.517090598987   -2.116135660931
 H    1.840373612335   -3.607090598987   -0.785135660931
 H    1.352373612335   -1.940090598987   -1.163135660931
 H    1.122373612335   -3.196090598987   -2.361135660931
 H    3.020373612335   -1.927090598987   -3.019135660931
 H    3.703473612335   -3.435883598987   -2.380285660931
 H    3.743093612335   -1.911641598987   -1.407125660931
 C   -0.728626387665   -1.246090598987    0.793864339069
 C    0.344373612335   -1.673090598987    1.817864339069
 C   -0.810626387665    0.221909401013    0.531864339069
 C    0.294373612335    0.921909401013    0.116864339069
 C   -2.013626387665    0.875909401013    0.618864339069
 C    0.224373612335    2.265909401013   -0.154135660931
 C   -2.106626387665    2.256909401013    0.314864339069
 C   -0.969626387665    2.950909401013   -0.067135660931
 H   -0.554626387665   -1.750090598987   -0.155135660931
 H   -1.702626387665   -1.579090598987    1.138864339069
 H    1.314373612335   -1.288090598987    1.501864339069
 H    1.243373612335    0.417909401013    0.003864339069
 H   -2.905626387665    0.339909401013    0.913864339069
 H    1.123373612335    2.764909401013   -0.466135660931
 H   -3.058626387665    2.767909401013    0.382864339069
 H   -1.020626387665    4.006909401013   -0.296135660931
 H    0.393093612335   -2.771500598987    1.851354339069
 H    0.128783612335   -1.263548598987    2.815764339069
