23
-1 1 
 C   -1.226241681568   -0.750904285336   -4.274203797796
 C   -1.606241681568   -0.702904285336   -2.813203797796
 O   -2.584241681568    0.005095714664   -2.503203797796
 O   -0.995241681568   -1.467904285336   -2.046203797796
 H   -1.769241681568   -1.574904285336   -4.743203797796
 H   -0.160241681568   -0.949904285336   -4.380203797796
 H   -1.485591681568    0.184600714664   -4.791473797796
 C    3.413758318432    1.216095714664    2.824796202204
 C   -0.297241681568    0.005095714664    0.991796202204
 C   -0.218241681568    0.183095714664    2.372796202204
 C    0.819758318432    0.218095714664    0.185796202204
 C    0.981758318432    0.583095714664    2.944796202204
 C    2.022758318432    0.609095714664    0.787796202204
 C    2.113758318432    0.802095714664    2.166796202204
 O   -1.504241681568   -0.342904285336    0.497796202204
 H   -2.160241681568   -0.410904285336    1.190796202204
 H   -1.075241681568   -0.000904285336    2.990796202204
 H    0.738758318432    0.097095714664   -0.882203797796
 H    1.032758318432    0.726095714664    4.014796202204
 H    2.894758318432    0.774095714664    0.168796202204
 H    3.169758318432    2.002095714664    3.536796202204
 H    4.078758318432    1.654095714664    2.078796202204
 H    3.931658318432    0.403690714664    3.355626202204
