23
0 1 
 C   -1.010001042662   -2.343045539419   -0.715990106961
 C    0.344998957338   -0.353045539419   -0.083990106961
 C   -0.388001042662   -1.456045539419    0.319009893039
 C    0.908998957338    0.522954460581    0.833009893039
 C   -0.515001042662   -1.686045539419    1.684009893039
 C    0.787998957338    0.275954460581    2.188009893039
 C    0.071998957338   -0.822045539419    2.621009893039
 H    0.453998957338   -0.148045539419   -1.135990106961
 H    1.457998957338    1.387954460581    0.487009893039
 H   -1.338001042662   -1.727045539419   -1.554990106961
 H   -1.882001042662   -2.805045539419   -0.253990106961
 H   -1.078001042662   -2.539045539419    2.035009893039
 H    1.243998957338    0.943954460581    2.903009893039
 H   -0.025001042662   -1.019045539419    3.678009893039
 H   -0.352427042662   -3.145156539419   -1.082340106961
 C    0.158998957338    2.634954460581   -2.166990106961
 C   -0.216001042662    2.661954460581   -3.640990106961
 H   -0.113001042662    3.581954460581   -1.703990106961
 H   -0.388001042662    1.838954460581   -1.674990106961
 H    1.221998957338    2.434954460581   -2.033990106961
 H    0.140998957338    1.732954460581   -4.084990106961
 H    0.252451957338    3.507194460581   -4.166470106961
 H   -1.309485042662    2.675794460581   -3.759740106961
