19
0 1 
 C   -1.125711898152    0.339651982032    0.128617099139
 C   -1.684711898152    0.013651982032    1.512617099139
 C   -2.006711898152    1.266651982032   -0.707382900861
 H   -0.164711898152    0.831651982032    0.260617099139
 H   -0.961711898152   -0.588348017968   -0.424382900861
 H   -2.671711898152   -0.426348017968    1.374617099139
 H   -2.211711898152    2.156651982032   -0.124382900861
 H   -1.764041898152    0.924781982032    2.123811099139
 H   -1.071741898152   -0.756008017968    2.004444099139
 H   -1.467531898152    1.564181982032   -1.618841900861
 H   -2.961381898152    0.786071982032   -0.967484900861
 C    2.144288101848   -1.079348017968   -1.135382900861
 C    2.600288101848   -0.514348017968    0.209617099139
 H    2.995288101848   -1.480348017968   -1.686382900861
 H    1.428288101848   -1.879348017968   -0.954382900861
 H    1.642288101848   -0.317348017968   -1.732382900861
 H    1.744288101848   -0.059348017968    0.700617099139
 H    3.374548101848    0.257061982032    0.085335099139
 H    2.953798101848   -1.325978017968    0.862527099139
