22
-1 1 
 C   -0.559743079485    2.334935085078   -3.382176932919
 C    0.743256920515    0.146935085078   -0.587176932919
 C    1.419256920515    1.068935085078    0.198823067081
 C    0.101256920515    0.558935085078   -1.746176932919
 C    0.138256920515    1.891935085078   -2.134176932919
 C    1.454256920515    2.404935085078   -0.178176932919
 C    0.812256920515    2.814935085078   -1.340176932919
 H    0.728256920515   -0.895064914922   -0.309176932919
 H    1.918256920515    0.744935085078    1.101823067081
 H   -0.432743079485   -0.162064914922   -2.345176932919
 H    1.979256920515    3.125935085078    0.434823067081
 H   -0.796743079485    3.397935085078   -3.300176932919
 H   -1.506743079485    1.798935085078   -3.437176932919
 H    0.843256920515    3.856935085078   -1.627176932919
 H    0.002656920515    2.163485085078   -4.311856932919
 C   -1.677743079485   -2.944064914922    0.970823067081
 C   -0.845743079485   -2.495064914922    2.167823067081
 O    0.127256920515   -1.736064914922    1.960823067081
 O   -1.136743079485   -2.907064914922    3.306823067081
 H   -1.126743079485   -3.737064914922    0.469823067081
 H   -1.799743079485   -2.120064914922    0.264823067081
 H   -2.663733079485   -3.334294914922    1.263313067081
