27
0 1 
 C    0.205585019121    1.029291518828    0.424291095067
 C   -0.222414980879    0.933291518828    1.920291095067
 C    1.924585019121   -0.075708481172    1.695291095067
 C    1.940585019121    1.234291518828   -1.887708904933
 C    2.477585019121    0.673291518828   -0.569708904933
 O    3.686585019121    0.384291518828   -0.444708904933
 N    1.576585019121    0.515291518828    0.412291095067
 H   -0.433414980879    0.396291518828   -0.190708904933
 H    0.149585019121    2.069291518828    0.102291095067
 H   -1.291414980879    0.785291518828    2.045291095067
 H    0.095585019121    1.835291518828    2.445291095067
 H    2.600585019121    0.573291518828    2.254291095067
 H    1.140585019121    1.945291518828   -1.700708904933
 H    0.368505019121    0.075911518828    2.274841095067
 H    0.956975019121   -0.190348481172    2.205771095067
 H    2.361295019121   -1.068038481172    1.509361095067
 H    2.741895019121    1.753411518828   -2.433988904933
 H    1.554455019121    0.387941518828   -2.474738904933
 C   -2.460414980879   -2.523708481172   -0.730708904933
 C   -2.849414980879   -1.095708481172   -0.338708904933
 O   -2.887414980879   -0.745708481172    0.848291095067
 N   -3.112414980879   -0.253708481172   -1.326708904933
 H   -2.544414980879   -2.643708481172   -1.808708904933
 H   -3.159414980879   -3.207708481172   -0.252708904933
 H   -3.426414980879    0.675291518828   -1.098708904933
 H   -3.114414980879   -0.591708481172   -2.284708904933
 H   -1.442494980879   -2.778548481172   -0.400708904933
