20
0 1 
 C   -1.938868033282    3.338957868124   -0.232924767373
 C   -1.203868033282    0.990957868124   -0.531924767373
 N   -1.253868033282   -0.129042131876   -1.221924767373
 N   -1.918868033282    2.039957868124   -0.916924767373
 N   -0.435868033282    1.051957868124    0.538075232627
 H   -1.899868033282   -0.238042131876   -1.989924767373
 H   -0.658868033282   -0.907042131876   -0.935924767373
 H   -2.518868033282    1.926957868124   -1.722924767373
 H   -0.589868033282    1.780957868124    1.223075232627
 H    0.115131966718    0.235957868124    0.819075232627
 H   -1.937868033282    3.202957868124    0.850075232627
 H   -2.858868033282    3.868957868124   -0.486924767373
 H   -1.077288033282    3.956436868124   -0.526854767373
 C    2.786131966718   -2.705042131876    0.888075232627
 C    1.633131966718   -1.766042131876    0.563075232627
 O    1.063131966718   -1.876042131876   -0.542924767373
 O    1.280131966718   -0.924042131876    1.419075232627
 H    3.064131966718   -3.284042131876    0.006075232627
 H    2.445131966718   -3.412042131876    1.647075232627
 H    3.667611966718   -2.178022631876    1.282085232627
