24
0 1 
 C   -3.983165266494    1.254036709520   -1.898628437785
 C   -1.482165266494   -0.972963290480   -0.500628437785
 C   -2.882165266494    0.605036709519   -1.110628437785
 C   -2.165165266494    1.061036709520   -0.045628437785
 N   -2.430165266494   -0.672963290480   -1.378628437785
 N   -1.300165266494    0.066036709519    0.310371562215
 H   -0.983165266494   -1.933963290480   -0.508628437785
 H   -0.634165266494    0.117036709520    1.073371562215
 H   -2.199165266494    2.000036709520    0.476371562215
 H   -4.884165266494    1.210036709520   -1.288628437785
 H   -4.130165266494    0.640036709519   -2.793628437785
 H   -3.787695266494    2.290106709520   -2.212238437785
 C    2.980834733506   -1.240963290481    2.659371562215
 C    2.220834733506   -1.157963290480    0.167371562215
 C    2.557834733506   -0.591963290480    1.361371562215
 C    2.092834733506    1.025036709519   -0.065628437785
 N    1.937834733506   -0.134963290481   -0.700628437785
 N    2.467834733506    0.777036709519    1.183371562215
 H    2.160834733506   -2.187963290480   -0.130628437785
 H    1.660834733506   -0.249963290480   -1.663628437785
 H    3.924834733506   -0.778963290480    2.950371562215
 H    3.146834733506   -2.292963290480    2.445371562215
 H    1.954834733506    2.035036709520   -0.434628437785
 H    2.249294733506   -1.114083290481    3.471011562215
