16
-1 1 
 C    0.324757100944    3.005250596064   -0.563663315179
 C    0.225757100944    1.502250596064   -0.325663315179
 O    0.143757100944    0.734250596064   -1.306663315179
 O    0.265757100944    1.080250596064    0.847336684821
 H    1.371757100944    3.256250596064   -0.417663315179
 H   -0.275242899056    3.555250596064    0.162336684821
 H    0.025187100944    3.292604596064   -1.582333315179
 C   -0.844242899056   -1.999749403936    0.623336684821
 C    0.336757100944   -2.517749403936    1.440336684821
 O   -0.429242899056   -1.653749403936   -0.676663315179
 H   -1.605242899056   -2.778749403936    0.571336684821
 H   -1.275242899056   -1.123749403936    1.109336684821
 H   -0.024242899056   -2.739749403936    2.446336684821
 H   -0.240242899056   -0.683749403936   -0.746663315179
 H    1.124782100944   -1.753079403936    1.505879884821
 H    0.699265100944   -3.457236403936    0.997672684821
