18
-1 1 
 C   -2.052440975232    0.978975972488   -0.207996740111
 C   -1.466440975232   -0.295024027512   -0.835996740111
 O   -1.569440975232   -1.381024027512   -0.206996740111
 O   -0.859440975232   -0.212024027512   -1.942996740111
 H   -2.378440975232    1.649975972488   -0.999996740111
 H   -1.275440975232    1.478975972488    0.376003259889
 H   -2.931880975232    0.799525972488    0.427913259889
 C    1.891559024768    0.608975972488    0.491003259889
 C    1.494559024768    1.055975972488    1.916003259889
 C    2.576559024768   -0.723024027512    0.757003259889
 H    2.596559024768    1.326975972488    0.090003259889
 H    1.068559024768    0.468975972488   -0.213996740111
 H    2.376559024768    1.326975972488    2.503003259889
 H    0.796559024768    1.888975972488    1.898003259889
 H    2.446559024768   -1.429024027512   -0.067996740111
 H    1.047179024768    0.107385972488    2.247713259889
 H    2.055169024768   -1.096734027512    1.650593259889
 H    3.648889024768   -0.598254027512    0.968043259889
