18
-1 1 
 C   -1.282277798645   -2.427392901705    0.926035484490
 C   -1.858277798645   -3.369392901705    1.989035484490
 H   -0.326277798645   -2.028392901705    1.260035484490
 H   -1.125277798645   -2.946392901705   -0.013964515510
 H   -1.966277798645   -1.600392901705    0.745035484490
 H   -2.886277798645   -3.610392901705    1.711035484490
 H   -1.856137798645   -2.899232901705    2.983495484490
 H   -1.279447798645   -4.303212901705    2.043215484490
 C   -0.091277798645    0.598607098295   -1.105964515510
 C   -0.732277798645    1.664607098295   -2.003964515510
 C    1.040722201355    1.096607098295   -0.200964515510
 O    1.550722201355    2.213607098295   -0.407964515510
 O    1.432722201355    0.351607098295    0.718035484490
 H   -0.863277798645    0.119607098295   -0.507964515510
 H    0.333722201355   -0.179392901705   -1.743964515510
 H    0.068722201355    2.182607098295   -2.531964515510
 H   -1.283267798645    2.384897098295   -1.381404515510
 H   -1.357337798645    1.185007098295   -2.771614515510
