26
0 1 
 C    2.790661189932   -0.258412702746   -1.289372720247
 C    2.064661189932   -1.230412702746   -2.217372720247
 H    2.282661189932    0.705587297254   -1.268372720247
 H    2.806661189932   -0.670412702746   -0.280372720247
 H    3.816661189932   -0.120412702746   -1.628372720247
 H    1.023661189932   -1.299412702746   -1.899372720247
 H    2.494661189932   -2.212412702746   -2.047372720247
 H    2.101731189932   -0.983780702746   -3.288722720247
 C    0.929661189932    0.509587297254    1.718627279753
 C    0.455661189932    0.890587297254    3.119627279753
 C   -0.184338810068    0.262587297254    0.722627279753
 C   -0.664338810068    1.301587297254   -0.084372720247
 C   -0.725338810068   -1.021412702746    0.570627279753
 C   -1.678338810068    1.088587297254   -1.006372720247
 C   -1.721338810068   -1.260412702746   -0.364372720247
 C   -2.201338810068   -0.197412702746   -1.177372720247
 H    1.563661189932    1.304587297254    1.326627279753
 H    1.537661189932   -0.393412702746    1.788627279753
 H   -0.223338810068    0.115587297254    3.467627279753
 H   -0.251338810068    2.292587297254    0.017627279753
 H   -0.354338810068   -1.832412702746    1.172627279753
 H   -2.032338810068    1.900587297254   -1.592372720247
 H   -2.082338810068   -2.266412702746   -0.515372720247
 H   -2.845338810068   -0.364412702746   -2.016372720247
 H   -0.073868810068    1.854734597254    3.115107279753
 H    1.361141189932    0.958843297254    3.740467279753
