19
-1 1 
 C   -0.497319757798   -1.159991778554    2.335870074885
 C   -1.417319757798   -0.548991778554    1.324870074885
 C   -2.026319757798    0.335008221446   -0.596129925115
 C   -2.737319757798   -0.242991778554    1.405870074885
 N   -0.997319757798   -0.178991778554    0.068870074885
 N   -3.095319757798    0.297008221446    0.185870074885
 H   -2.001319757798    0.710008221446   -1.615129925115
 H   -0.282319757798   -2.183991778554    2.024870074885
 H   -1.007319757798   -1.197991778554    3.298870074885
 H   -4.019319757798    0.622008221446   -0.077129925115
 H   -3.378319757798   -0.399991778554    2.264870074885
 H    0.448710242202   -0.609891778554    2.447338074885
 C    2.560680242202    1.614008221446   -0.395129925115
 C    2.500680242202    0.276008221446   -1.142129925115
 O    1.546680242202   -0.517991778554   -0.934129925115
 O    3.408680242202    0.038008221446   -1.979129925115
 H    2.171680242202    1.442008221446    0.589870074885
 H    1.955680242202    2.357008221446   -0.918129925115
 H    3.584300242202    1.987608221446   -0.244682925115
