19
0 1 
 C    1.054863637947   -0.877221118955    0.541008796630
 C    2.438863637947   -0.672221118955    1.134008796630
 C    0.415863637947   -2.269221118955    0.608008796630
 H    0.382863637947   -0.196221118955    1.065008796630
 H    1.077863637947   -0.563221118955   -0.504991203370
 H    2.421863637947   -1.066221118955    2.151008796630
 H    0.982863637947   -2.964221118955   -0.010991203370
 H    2.649733637947    0.406958881045    1.164128796630
 H    3.219603637947   -1.206531118955    0.572798796630
 H    0.382473637947   -2.650261118955    1.639358796630
 H   -0.616586362053   -2.210101118955    0.233098796630
 C   -1.410136362053    1.308778881045   -1.023991203370
 C   -2.414136362053    2.445778881045   -1.218991203370
 H   -0.962136362053    1.375778881045   -0.032991203370
 H   -1.929136362053    0.355778881045   -1.119991203370
 H   -0.630136362053    1.341778881045   -1.784991203370
 H   -2.797136362053    2.375778881045   -2.236991203370
 H   -1.932726362053    3.425148881045   -1.080831203370
 H   -3.265276362053    2.338848881045   -0.530421203370
