30
0 1 
 C    2.600105982440   -0.882073868981   -0.939980915441
 C    0.719105982440   -0.548073868981    0.775019084559
 C    1.637105982440   -1.402073868981    0.088019084559
 C   -0.044894017560   -1.301073868981    1.687019084559
 C    1.416105982440   -2.646073868981    0.583019084559
 C    0.492105982440    0.839926131019    0.692019084559
 C   -0.440894017560    1.533926131019    1.435019084559
 C   -1.185894017560    0.779926131019    2.323019084559
 C   -0.964894017560   -0.567073868981    2.386019084559
 N    0.402105982440   -2.576073868981    1.543019084559
 H    1.094105982440    1.402926131019   -0.008980915441
 H   -0.579894017560    2.603926131019    1.334019084559
 H   -1.941894017560    1.247926131019    2.944019084559
 H    3.127105982440   -0.048073868981   -0.473980915441
 H    2.042105982440   -0.478073868981   -1.784980915441
 H    1.937105982440   -3.553073868981    0.292019084559
 H    0.054105982440   -3.381073868981    2.053019084559
 H   -1.575894017560   -1.122073868981    3.085019084559
 H    3.350615982440   -1.611613868981   -1.278360915441
 C   -1.424894017560    1.836926131019   -2.517980915441
 C   -1.085894017560    3.252926131019   -2.922980915441
 C   -1.849894017560    1.115926131019   -3.786980915441
 H   -2.201894017560    1.815926131019   -1.751980915441
 H   -0.523894017560    1.358926131019   -2.130980915441
 H   -1.993894017560    3.857926131019   -2.908980915441
 H   -0.333894017560    3.688926131019   -2.264980915441
 H   -1.533894017560    0.072926131019   -3.726980915441
 H   -0.721099017560    3.171456131019   -3.957530915441
 H   -1.267256017560    1.655206131019   -4.548360915441
 H   -2.938268017560    1.140986131019   -3.944510915441
