30
0 1 
 C    2.202625573083    1.209803198342   -2.482284429790
 C    2.194625573083   -0.783196801658   -0.919284429790
 C    2.597625573083    0.528803198342   -1.199284429790
 C    2.570625573083   -1.404196801658    0.271715570210
 C    3.382625573083    1.206803198342   -0.265284429790
 C    3.355625573083   -0.717196801658    1.197715570210
 C    3.762625573083    0.588803198342    0.928715570210
 H    1.615625573083   -1.369196801658   -1.613284429790
 H    2.267625573083   -2.422196801658    0.468715570210
 H    3.082625573083    1.395803198342   -3.092284429790
 H    1.788625573083    2.182803198342   -2.208284429790
 H    3.701625573083    2.221803198342   -0.464284429790
 H    3.646625573083   -1.198196801658    2.121715570210
 H    4.369625573083    1.124803198342    1.646715570210
 H    1.445125573083    0.671093198342   -3.070494429790
 C   -4.774374426917    0.970803198342    1.454715570210
 C   -1.381374426917   -0.928196801658   -0.395284429790
 C   -2.371374426917   -1.702196801658    0.210715570210
 C   -1.507374426917    0.459803198342   -0.418284429790
 C   -3.479374426917   -1.086196801658    0.795715570210
 C   -2.620374426917    1.070803198342    0.165715570210
 C   -3.611374426917    0.303803198342    0.778715570210
 H   -0.525374426917   -1.408196801658   -0.844284429790
 H   -2.297374426917   -2.776196801658    0.227715570210
 H   -0.741374426917    1.068803198342   -0.879284429790
 H   -4.225374426917   -1.702196801658    1.264715570210
 H   -2.702374426917    2.146803198342    0.147715570210
 H   -5.626374426917    0.308803198342    1.414715570210
 H   -5.038374426917    1.871803198342    0.899715570210
 H   -4.580094426917    1.238473198342    2.503815570210
