16
0 1 
 C   -1.112125445864   -1.143420286780   -0.571937044682
 C   -2.339125445864   -2.030420286780   -0.563937044682
 H   -1.176125445864   -0.476420286780    0.286062955318
 H   -0.213125445864   -1.754420286780   -0.487937044682
 H   -1.042125445864   -0.567420286780   -1.494937044682
 H   -2.355125445864   -2.604420286780   -1.489937044682
 H   -3.244215445864   -1.408171286780   -0.503789044682
 H   -2.298505445864   -2.735893686780    0.279067955318
 C    1.052874554136    1.628579713220    0.919062955318
 C    2.397874554136    1.549579713220    0.222062955318
 H    0.539874554136    2.562579713220    0.686062955318
 H    0.439874554136    0.805579713220    0.583062955318
 H    1.196874554136    1.544579713220    1.988062955318
 H    2.221874554136    1.605579713220   -0.851937044682
 H    3.042694554136    2.388712713220    0.522163955318
 H    2.894004554136    0.588290713220    0.421520955318
