23
0 1 
 C   -2.356689260174   -0.780030504744   -2.755594523398
 C   -1.221689260174   -1.753030504744   -2.464594523398
 H   -3.159689260174   -0.910030504744   -2.030594523398
 H   -1.997689260174    0.246969495256   -2.676594523398
 H   -2.752689260174   -0.941030504744   -3.756594523398
 H   -0.960689260174   -1.656030504744   -1.412594523398
 H   -1.526569260174   -2.791622504744   -2.660494523398
 H   -0.338059260174   -1.482630504744   -3.061294523398
 C   -1.085689260174   -0.792030504744    2.180405476602
 C   -0.420689260174    0.540969495256    0.162405476602
 C   -0.058689260174   -0.038030504744    1.376405476602
 C    0.523310739826    1.216969495256   -0.601594523398
 C    1.847310739826    1.315969495256   -0.168594523398
 C    1.271310739826    0.055969495256    1.805405476602
 C    2.226310739826    0.734969495256    1.036405476602
 H   -1.443689260174    0.480969495256   -0.182594523398
 H    0.229310739826    1.675969495256   -1.537594523398
 H   -2.071689260174   -0.374030504744    1.967405476602
 H   -0.896689260174   -0.639030504744    3.244405476602
 H    2.575310739826    1.848969495256   -0.766594523398
 H    1.569310739826   -0.381030504744    2.748405476602
 H    3.249310739826    0.815969495256    1.380405476602
 H   -1.105819260174   -1.867370504744    1.949705476602
