32
0 1 
 C    1.656701798450   -1.533728459044    2.642532277281
 C    1.195701798450    0.371271540956    1.066532277281
 C    1.922701798450   -0.779728459044    1.361532277281
 C    1.421701798450    1.073271540956   -0.115467722719
 C    2.382701798450    0.618271540956   -1.017467722719
 C    2.886701798450   -1.222728459044    0.455532277281
 C    3.115701798450   -0.529728459044   -0.736467722719
 O    2.597701798450    1.310271540956   -2.171467722719
 H    0.441701798450    0.725271540956    1.756532277281
 H    0.844701798450    1.958271540956   -0.328467722719
 H    1.878701798450   -2.589728459044    2.491532277281
 H    0.593701798450   -1.449728459044    2.875532277281
 H    3.456701798450   -2.116728459044    0.668532277281
 H    2.011701798450    2.085271540956   -2.201467722719
 H    3.857701798450   -0.876728459044   -1.439467722719
 H    2.244655798450   -1.160034459044    3.493802277281
 C   -1.288298201550    0.708271540956   -2.885467722719
 C   -2.548298201550   -0.258728459044    1.121532277281
 C   -2.707298201550    1.029271540956    0.628532277281
 C   -1.975298201550   -1.234728459044    0.319532277281
 C   -2.299298201550    1.342271540956   -0.665467722719
 C   -1.584298201550   -0.922728459044   -0.978467722719
 C   -1.731298201550    0.369271540956   -1.481467722719
 O   -2.933298201550   -0.546728459044    2.398532277281
 H   -3.148298201550    1.796271540956    1.249532277281
 H   -3.308298201550    0.223271540956    2.835532277281
 H   -1.846298201550   -2.229728459044    0.713532277281
 H   -2.426298201550    2.350271540956   -1.037467722719
 H   -1.150298201550   -1.689728459044   -1.603467722719
 H   -0.482298201550    0.034271540956   -3.173467722719
 H   -0.879298201550    1.719271540956   -2.884467722719
 H   -2.094500201550    0.654236540956   -3.631867722719
