21
0 1 
 C    3.374812215497    1.688817545186    0.123806221208
 C   -0.193187784503    1.282817545186   -0.398193778792
 C    1.892812215497    1.497817545186    0.258806221208
 C    1.115812215497    1.388817545186    1.366806221208
 N    1.052812215497    1.428817545186   -0.836193778792
 N   -0.181187784503    1.255817545186    0.927806221208
 H   -1.075187784503    1.185817545186   -1.019193778792
 H   -1.004187784503    1.115817545186    1.516806221208
 H    1.447812215497    1.404817545186    2.392806221208
 H    3.778812215497    0.835817545186   -0.422193778792
 H    3.821812215497    1.693817545186    1.116806221208
 H    3.634122215497    2.615857545186   -0.408503778792
 C   -2.721187784503   -2.256182454814    0.578806221208
 C   -1.638187784503   -1.966182454814   -0.433193778792
 O   -1.866187784503   -1.968182454814   -1.641193778792
 N   -0.430187784503   -1.742182454814    0.054806221208
 H   -2.457187784503   -1.810182454814    1.535806221208
 H   -2.748187784503   -3.337182454814    0.712806221208
 H    0.312812215497   -1.488182454814   -0.574193778792
 H   -0.310187784503   -1.658182454814    1.059806221208
 H   -3.716047784503   -1.894942454814    0.279206221208
