26
0 1 
 C    1.574949508166   -1.069894163936    0.341943338276
 C    1.730949508166   -2.401894163936    1.073943338276
 C    0.287949508166   -0.350894163936    0.623943338276
 C   -0.839050491834   -0.594894163936   -0.150056661724
 C    0.217949508166    0.580105836064    1.653943338276
 C   -2.030050491834    0.074105836064    0.105943338276
 C   -0.972050491834    1.250105836064    1.911943338276
 C   -2.097050491834    1.001105836064    1.133943338276
 H    2.395949508166   -0.401894163936    0.609943338276
 H    1.656949508166   -1.277894163936   -0.722056661724
 H    1.175949508166   -3.148894163936    0.512943338276
 H   -0.793050491834   -1.311894163936   -0.957056661724
 H    1.086949508166    0.788105836064    2.259943338276
 H   -2.896050491834   -0.155894163936   -0.486056661724
 H   -1.018050491834    1.971105836064    2.713943338276
 H   -3.022050491834    1.518105836064    1.347943338276
 H    1.339396508166   -2.349286163936    2.100553338276
 H    2.798401508166   -2.667307163936    1.063793338276
 C    1.319949508166    0.833105836064   -2.446056661724
 C    0.193949508166    0.844105836064   -3.469056661724
 H    0.912949508166    0.930105836064   -1.449056661724
 H    1.907949508166   -0.075894163936   -2.549056661724
 H    1.970949508166    1.694105836064   -2.602056661724
 H   -0.278050491834   -0.137894163936   -3.481056661724
 H    0.614220508166    1.063251836064   -4.461706661724
 H   -0.559421491834    1.596749836064   -3.193446661724
