20
0 1 
 C    0.406871609639    0.728467525729    2.836207556331
 C    1.158871609639    0.510467525729   -0.705792443669
 C    0.407871609639    0.808467525729    1.337207556331
 C   -0.441128390361    1.440467525729    0.485207556331
 N    1.398871609639    0.235467525729    0.570207556331
 N    0.042871609639    1.224467525729   -0.788792443669
 H    1.674871609639    0.063467525729   -1.538792443669
 H   -0.365128390361    1.545467525729   -1.659792443669
 H   -1.324128390361    2.004467525729    0.758207556331
 H    0.413871609639    1.731467525729    3.232207556331
 H    1.345871609639    0.270467525729    3.151207556331
 H   -0.422088390361    0.141589525729    3.258587556331
 C   -0.590128390361   -2.132532474271   -1.845792443669
 C   -2.068128390361   -2.404532474271   -1.593792443669
 H   -0.182128390361   -2.881532474271   -2.523792443669
 H   -0.471128390361   -1.147532474271   -2.292792443669
 H   -0.046128390361   -2.163532474271   -0.901792443669
 H   -2.416128390361   -1.675532474271   -0.860792443669
 H   -2.187148390361   -3.416210474271   -1.178652443669
 H   -2.648338390361   -2.264852474271   -2.517832443669
