27
0 1 
 C   -0.867690478127   -1.610541098094    2.739121190220
 C    0.596309521873    0.732458901906    0.213121190220
 C   -0.528690478127    0.205458901906    0.894121190220
 C   -0.046690478127   -0.784541098094    1.814121190220
 C    1.303309521873   -0.825541098094    1.663121190220
 C    0.487309521873    1.724458901906   -0.748878809780
 C   -0.776690478127    2.199458901906   -1.044878809780
 C   -1.797690478127    0.703458901906    0.578121190220
 C   -1.909690478127    1.695458901906   -0.390878809780
 N    1.693309521873    0.082458901906    0.709121190220
 H    2.654309521873    0.308458901906    0.457121190220
 H    1.371309521873    2.128458901906   -1.212878809780
 H    1.971309521873   -1.481541098094    2.212121190220
 H   -0.898690478127    2.980458901906   -1.781878809780
 H   -2.665690478127    0.331458901906    1.095121190220
 H   -0.401690478127   -2.576541098094    2.827121190220
 H   -1.852690478127   -1.765541098094    2.298121190220
 H   -2.883690478127    2.082458901906   -0.651878809780
 H   -0.972956478127   -1.196691098094    3.752851190220
 C    0.600309521873   -1.966541098094   -2.223878809780
 C    0.900309521873   -1.396541098094   -3.608878809780
 H    1.244309521873   -1.518541098094   -1.472878809780
 H   -0.428690478127   -1.729541098094   -1.950878809780
 H    0.728309521873   -3.048541098094   -2.223878809780
 H    0.856309521873   -0.309541098094   -3.536878809780
 H    1.901012421873   -1.691881098094   -3.957258809780
 H    0.134905521873   -1.720141098094   -4.329598809780
