16
0 1 
 C   -1.490633912264    0.294542356921    0.997316200241
 C   -2.624633912264   -0.566457643079    1.548316200241
 H   -1.385633912264    0.117542356921   -0.073683799759
 H   -1.730633912264    1.344542356921    1.163316200241
 H   -0.554633912264    0.075542356921    1.510316200241
 H   -2.686633912264   -0.408457643079    2.623316200241
 H   -2.448685912264   -1.632157643079    1.340182200241
 H   -3.589053912264   -0.259564643079    1.117374200241
 C    1.672366087736    0.755542356921   -1.053683799759
 C    2.443366087736   -0.491457643079   -1.489683799759
 H    2.324366087736    1.428542356921   -0.498683799759
 H    1.306366087736    1.291542356921   -1.929683799759
 H    0.833366087736    0.469542356921   -0.427683799759
 H    3.339366087736   -0.139457643079   -2.002683799759
 H    2.738026087736   -1.122980643079   -0.638594799759
 H    1.848256087736   -1.071398643079   -2.210457799759
