23
0 1 
 C    0.076052148894    3.117826643020    1.005795570923
 C   -0.921947851106   -0.367173356980    1.119795570923
 C   -0.585947851106    1.787826643020    0.824795570923
 C   -1.628947851106    1.413826643020    0.036795570923
 N   -0.167947851106    0.653826643020    1.490795570923
 N   -1.820947851106    0.063826643020    0.240795570923
 H   -0.797947851106   -1.391173356980    1.453795570923
 H   -2.503947851106   -0.522173356980   -0.225204429077
 H   -2.197947851106    2.054826643020   -0.614204429077
 H    0.881052148894    3.205826643020    0.286795570923
 H    0.535052148894    3.090826643020    1.990795570923
 H   -0.595567851106    3.986476643020    0.939640570923
 C    1.048052148894   -2.281173356980   -1.554204429077
 C    1.640052148894   -1.043173356980   -2.241204429077
 C    1.996052148894   -2.943173356980   -0.564204429077
 H    0.125052148894   -2.010173356980   -1.041204429077
 H    0.795052148894   -3.029173356980   -2.301204429077
 H    2.616052148894   -1.311173356980   -2.640204429077
 H    2.086052148894   -2.343173356980    0.340795570923
 H    1.606052148894   -3.920173356980   -0.292204429077
 H    2.978052148894   -3.081173356980   -1.016204429077
 H    0.997949148894   -0.726050356980   -3.076152429077
 H    1.780329148894   -0.221652356980   -1.523272429077
