20
0 1 
 C    1.534829904578   -1.794828811132   -1.886557828846
 C    1.558829904578   -2.314828811132   -0.448557828846
 O    0.777829904578   -1.824828811132    0.407442171154
 O    2.386829904578   -3.223828811132   -0.186557828846
 H    1.680829904578   -2.634828811132   -2.569557828846
 H    2.368829904578   -1.104828811132   -2.021557828846
 H    0.602739904578   -1.275409811132   -2.153787828846
 C   -2.159170095422    3.430171188868   -0.374557828846
 C   -1.019170095422    1.437171188868    0.614442171154
 N    0.052829904578    0.932171188868    1.194442171154
 N   -1.030170095422    2.721171188868    0.257442171154
 N   -2.060170095422    0.649171188868    0.395442171154
 H    0.830829904578    1.515171188868    1.454442171154
 H    0.156829904578   -0.080828811132    1.241442171154
 H   -0.326170095422    3.289171188868    0.708442171154
 H   -2.896170095422    1.027171188868   -0.039557828846
 H   -2.037170095422   -0.305828811132    0.709442171154
 H   -1.987170095422    4.508171188868   -0.336557828846
 H   -3.067170095422    3.244171188868    0.202442171154
 H   -2.339150095422    3.141476188868   -1.420627828846
