16
0 1 
 C   -0.602166931169    0.224771748903    1.721456678054
 C   -0.936166931169    0.306771748903    3.204456678054
 H   -1.370166931169   -0.346228251097    1.198456678054
 H   -0.564166931169    1.227771748903    1.299456678054
 H    0.366833068831   -0.257228251097    1.581456678054
 H   -1.921166931169    0.759771748903    3.307456678054
 H   -0.949786931169   -0.708638251097    3.627246678054
 H   -0.201966931169    0.932891748903    3.732586678054
 C    0.321833068831   -0.548228251097   -1.908543321946
 C    1.217833068831    0.015771748903   -3.018543321946
 H   -0.206166931169   -1.436228251097   -2.258543321946
 H    0.926833068831   -0.814228251097   -1.042543321946
 H   -0.409166931169    0.202771748903   -1.602543321946
 H    1.796833068831    0.837771748903   -2.605543321946
 H    0.607553068831    0.379371748903   -3.858393321946
 H    1.908673068831   -0.766928251097   -3.365123321946
