24
0 1 
 C    0.214879193098   -3.128839037010   -0.478583995555
 C   -1.214120806902    0.876160962990    0.146416004445
 C   -1.021120806902    0.015160962990    1.228416004445
 C   -0.970120806902    0.414160962990   -1.147583995555
 C   -0.566120806902   -1.273839037010    1.024416004445
 C   -0.488120806902   -0.872839037010   -1.334583995555
 C   -0.285120806902   -1.731839037010   -0.256583995555
 O   -1.701120806902    2.136160962990    0.379416004445
 H   -1.212120806902    0.353160962990    2.235416004445
 H   -1.788120806902    2.319160962990    1.314416004445
 H   -1.117120806902    1.079160962990   -1.985583995555
 H   -0.409120806902   -1.925839037010    1.872416004445
 H   -0.270120806902   -1.212839037010   -2.339583995555
 H    1.098879193098   -3.274839037010    0.143416004445
 H    0.518879193098   -3.249839037010   -1.519583995555
 H   -0.529000806902   -3.897229037010   -0.221252995555
 C    2.449879193098    0.869160962990    0.485416004445
 C    3.064879193098    2.074160962990   -0.194583995555
 H    1.380879193098    0.979160962990    0.595416004445
 H    2.619879193098    0.002160962990   -0.147583995555
 H    2.905879193098    0.713160962990    1.463416004445
 H    2.652879193098    2.148160962990   -1.202583995555
 H    4.134879193098    1.883160962990   -0.283583995555
 H    2.902919193098    3.026470962990    0.331600004445
