27
0 1 
 C   -1.860676244643   -0.841671141551    3.688072390797
 C    0.177323755357    0.307328858449    0.742072390797
 C   -0.979676244643   -0.335671141551    1.267072390797
 C   -0.925676244643   -0.212671141551    2.700072390797
 C    0.207323755357    0.492328858449    2.979072390797
 C   -0.458676244643   -0.227671141551   -1.488927609203
 C    0.447323755357    0.368328858449   -0.622927609203
 C   -1.613676244643   -0.872671141551   -1.001927609203
 C   -1.880676244643   -0.933671141551    0.370072390797
 N    0.874323755357    0.798328858449    1.814072390797
 H   -0.279676244643   -0.194671141551   -2.554927609203
 H    1.332323755357    0.867328858449   -0.992927609203
 H   -2.299676244643   -1.329671141551   -1.699927609203
 H   -2.760676244643   -1.438671141551    0.737072390797
 H    1.758323755357    1.293328858449    1.777072390797
 H    0.558323755357    0.723328858449    3.980072390797
 H   -1.322676244643   -0.989671141551    4.625072390797
 H   -2.109676244643   -1.822671141551    3.306072390797
 H   -2.802036244643   -0.315197141551    3.904098390797
 C    2.016323755357    0.611328858449   -4.258927609203
 C    3.203323755357    0.667328858449   -5.204927609203
 H    1.600323755357    1.605328858449   -4.094927609203
 H    1.240323755357   -0.019671141551   -4.691927609203
 H    2.317323755357    0.179328858449   -3.305927609203
 H    3.515323755357   -0.356671141551   -5.404927609203
 H    4.042313755357    1.203112858449   -4.736919609203
 H    2.915583755357    1.140403858449   -6.155404609203
