30
0 1 
 C   -0.448542524299   -2.701200557781    1.104975046967
 C   -1.090542524299   -0.322200557781    0.487975046967
 C   -0.212542524299   -1.245200557781    0.935975046967
 C    0.808457475701    0.808799442219    0.880975046967
 C    1.016457475701   -0.544200557781    1.216975046967
 C    1.795457475701    1.770799442219    1.039975046967
 C    2.275457475701   -0.942200557781    1.673975046967
 C    3.017457475701    1.355799442219    1.508975046967
 C    3.262457475701    0.016799442219    1.827975046967
 N   -0.486542524299    0.908799442219    0.459975046967
 H   -2.112542524299   -0.506200557781    0.182975046967
 H   -0.956542524299    1.774799442219    0.178975046967
 H   -0.312542524299   -2.943200557781    2.158975046967
 H    0.321457475701   -3.228200557781    0.540975046967
 H    1.607457475701    2.803799442219    0.786975046967
 H    2.464457475701   -1.978200557781    1.913975046967
 H    3.813457475701    2.078799442219    1.624975046967
 H    4.243457475701   -0.277200557781    2.177975046967
 H   -1.433412524299   -3.060710557781    0.772125046967
 C   -2.921542524299    0.534799442219   -2.762024953033
 C   -2.181542524299   -0.767200557781   -3.074024953033
 C   -3.483542524299    1.216799442219   -4.008024953033
 H   -3.729542524299    0.333799442219   -2.057024953033
 H   -2.220542524299    1.215799442219   -2.276024953033
 H   -1.795542524299   -1.173200557781   -2.139024953033
 H   -1.327542524299   -0.544200557781   -3.715024953033
 H   -2.668542524299    1.507799442219   -4.674024953033
 H   -4.157542524299    0.540799442219   -4.535024953033
 H   -2.801782524299   -1.531240557781   -3.565494953033
 H   -4.052692524299    2.104209442219   -3.694064953033
