17
0 1 
 C   -0.066829000914    0.478606959887   -2.232522971115
 C    0.612170999086    0.272606959887   -3.577522971115
 H   -0.709829000914   -0.368393040113   -2.002522971115
 H    0.690170999086    0.555606959887   -1.453522971115
 H   -0.658829000914    1.392606959887   -2.248522971115
 H    1.118170999086   -0.687393040113   -3.537522971115
 H   -0.118716000914    0.269734959887   -4.399590971115
 H    1.377668999086    1.038104959887   -3.772521971115
 C    0.792170999086    0.194606959887    2.526477028885
 C   -0.199829000914   -0.143393040113    1.434477028885
 O   -1.074829000914    0.636606959887    1.062477028885
 N   -0.085829000914   -1.364393040113    0.915477028885
 H    1.739170999086   -0.274393040113    2.260477028885
 H    0.447170999086   -0.252393040113    3.460477028885
 H   -0.737829000914   -1.640393040113    0.197477028885
 H    0.612170999086   -2.007393040113    1.256477028885
 H    0.945324999086    1.273873959887    2.673877028885
