15
-1 1 
 C    1.936799494207    0.600272421929   -1.170776704751
 C    1.589799494207    1.392272421929   -2.447776704751
 H    1.574799494207    1.116272421929   -0.282776704751
 H    1.455799494207   -0.374727578071   -1.217776704751
 H    3.016799494207    0.461272421929   -1.099776704751
 H    0.508799494207    1.536272421929   -2.493776704751
 H    1.880799494207    0.755272421929   -3.281776704751
 H    2.096519494207    2.365522421929   -2.525292704751
 C   -0.124200505793   -0.751727578071    2.103223295249
 C   -0.939200505793   -0.503727578071    0.859223295249
 O   -1.153200505793   -1.419727578071    0.028223295249
 O   -1.379200505793    0.649272421929    0.697223295249
 H   -0.199200505793    0.086272421929    2.795223295249
 H    0.919799494207   -0.806727578071    1.790223295249
 H   -0.391950505793   -1.688147578071    2.614517295249
