18
0 1 
 C   -1.067227014429    1.595584169936    2.259504561745
 C   -0.347227014429    1.035584169936    1.061504561745
 O   -1.020227014429    0.521584169936    0.156504561745
 O    0.885772985571    1.063584169936    1.017504561745
 H   -1.485227014429    0.771584169936    2.842504561745
 H   -1.900227014429    2.206584169936    1.909504561745
 H   -0.430197014429    2.208804169936    2.913844561745
 C    0.125772985571   -1.620415830064   -1.803495438255
 C    0.654772985571   -2.350415830064   -0.591495438255
 N    0.670772985571   -0.241415830064   -1.895495438255
 H    0.390772985571   -2.190415830064   -2.701495438255
 H   -0.967227014429   -1.575415830064   -1.737495438255
 H    0.465772985571   -1.749415830064    0.299504561745
 H    1.734772985571   -2.481415830064   -0.691495438255
 H    1.682772985571   -0.229415830064   -1.881495438255
 H    0.352772985571    0.229584169936   -2.733495438255
 H    0.329772985571    0.293584169936   -1.091495438255
 H    0.188002985571   -3.336375830064   -0.450025438255
