27
0 1 
 C    0.396190976672   -3.361188557230   -0.704028444903
 C    1.379190976672   -4.439188557230   -0.223028444903
 H   -0.616809023328   -3.762188557230   -0.725028444903
 H    0.418190976672   -2.503188557230   -0.035028444903
 H    0.663190976672   -2.973188557230   -1.687028444903
 H    2.376190976672   -4.006188557230   -0.231028444903
 H    1.347090976672   -5.309482557230   -0.895008444903
 H    1.144290976672   -4.752392557230    0.804941555097
 C   -1.816809023328    1.964811442770   -2.138028444903
 C   -0.197809023328    0.970811442770   -0.346028444903
 C   -1.440809023328    1.579811442770   -0.747028444903
 C   -0.262809023328    0.761811442770    1.056971555097
 C   -2.183809023328    1.713811442770    0.383971555097
 C    2.013190976672   -0.007188557230   -0.315028444903
 C    1.920190976672   -0.199188557230    1.075971555097
 C    0.960190976672    0.569811442770   -1.033028444903
 C    0.785190976672    0.182811442770    1.774971555097
 N   -1.483809023328    1.229811442770    1.465971555097
 H    2.913190976672   -0.307188557230   -0.836028444903
 H    2.739190976672   -0.658188557230    1.610971555097
 H    1.038190976672    0.717811442770   -2.100028444903
 H    0.707190976672    0.032811442770    2.841971555097
 H   -1.808809023328    1.077811442770   -2.761028444903
 H   -1.008809023328    2.604811442770   -2.486028444903
 H   -3.185809023328    2.128811442770    0.429971555097
 H   -1.837809023328    1.224811442770    2.416971555097
 H   -2.752709023328    2.530085442770   -2.258698444903
