23
0 1 
 C    1.463600332004   -2.311075453501   -1.242253132209
 C    0.014600332004    0.720924546499    0.564746867791
 C    0.265600332004   -0.250075453501   -0.413253132209
 C    0.758600332004    0.754924546499    1.725746867791
 C    1.257600332004   -1.219075453501   -0.217253132209
 C    1.748600332004   -0.204075453501    1.922746867791
 C    1.994600332004   -1.190075453501    0.969746867791
 H   -0.760399667996    1.458924546499    0.407746867791
 H   -0.327399667996   -0.259075453501   -1.317253132209
 H    0.572600332004    1.509924546499    2.474746867791
 H    2.328600332004   -0.187075453501    2.834746867791
 H    2.497600332004   -2.658075453501   -1.209253132209
 H    1.313600332004   -1.889075453501   -2.223253132209
 H    2.765600332004   -1.911075453501    1.152746867791
 H    0.782120332004   -3.159157453501   -1.079961132209
 C   -3.462399667996    1.104924546499   -0.945253132209
 C   -3.153399667996    2.329924546499   -1.765253132209
 H   -4.509399667996    0.822924546499   -1.048253132209
 H   -2.844399667996    0.280924546499   -1.300253132209
 H   -3.236399667996    1.286924546499    0.106746867791
 H   -3.447399667996    2.151924546499   -2.801253132209
 H   -2.070399667996    2.441924546499   -1.742253132209
 H   -3.630479667996    3.249644546499   -1.395786132209
