23
0 1 
 C    0.625328156401    0.652081971208   -3.460403041280
 C    0.541328156401   -0.452918028792    0.170596958720
 C   -0.670671843599   -1.120918028792    0.244596958720
 C    0.959328156401    0.119081971208   -1.015403041280
 C    0.160328156401    0.028081971208   -2.155403041280
 C   -1.476671843599   -1.252918028792   -0.875403041280
 C   -1.041671843599   -0.703918028792   -2.088403041280
 H    1.160328156401   -0.368918028792    1.053596958720
 H   -0.988671843599   -1.544918028792    1.187596958720
 H    1.902328156401    0.647081971208   -1.049403041280
 H   -2.421671843599   -1.773918028792   -0.810403041280
 H    1.378328156401    1.410081971208   -3.243403041280
 H   -0.221671843599    1.157081971208   -3.918403041280
 H   -1.660671843599   -0.798918028792   -2.968403041280
 H    1.041306156401   -0.082502028792   -4.165632041280
 C   -0.038671843599    0.632081971208    3.712596958720
 C    0.745328156401    1.645081971208    4.552596958720
 H   -0.417671843599    1.106081971208    2.806596958720
 H    0.611328156401   -0.189918028792    3.424596958720
 H   -0.869671843599    0.220081971208    4.283596958720
 H    0.971328156401    1.183081971208    5.514596958720
 H    0.155191156401    2.557432971208    4.723926958720
 H    1.694186156401    1.886990271208    4.051449958720
