26
0 1 
 C   -1.324759953689    2.336558386399   -1.115500490533
 C   -1.119759953689   -1.796441613601   -0.012500490533
 C   -1.755759953689   -0.891441613601    0.815499509467
 C   -0.558759953689   -1.363441613601   -1.204500490533
 C   -1.828759953689    0.450558386399    0.452499509467
 C   -0.630759953689   -0.016441613601   -1.566500490533
 C   -1.271759953689    0.890558386399   -0.743500490533
 H   -1.060759953689   -2.837441613601    0.272499509467
 H   -2.195759953689   -1.223441613601    1.746499509467
 H   -0.057759953689   -2.064441613601   -1.855500490533
 H   -2.325759953689    1.153558386399    1.106499509467
 H   -0.187759953689    0.311558386399   -2.496500490533
 H   -0.496759953689    2.580558386399   -1.772500490533
 H   -1.193759953689    2.921558386399   -0.204500490533
 H   -2.267919953689    2.640848386399   -1.592850490533
 C    2.164240046311   -0.290441613601    1.326499509467
 C    2.553240046311    1.145558386399    1.700499509467
 C    2.874240046311   -0.790441613601    0.077499509467
 H    2.368240046311   -0.972441613601    2.153499509467
 H    1.090240046311   -0.321441613601    1.149499509467
 H    2.016240046311    1.393558386399    2.616499509467
 H    3.952240046311   -0.836441613601    0.223499509467
 H    2.523240046311   -1.798441613601   -0.141500490533
 H    2.641240046311   -0.164441613601   -0.783500490533
 H    3.637000046311    1.226608386399    1.870489509467
 H    2.257270046311    1.864958386399    0.922769509467
