16
0 1 
 C   -0.962507105557    0.594744203972    0.480583955280
 C   -0.952507105557    1.250744203972    1.812583955280
 H   -0.271507105557    1.218744203972   -0.074416044720
 H   -0.612507105557   -0.390255796028    0.781583955280
 H   -1.962507105557    0.557744203972    0.051583955280
 H    0.080492894443    1.388744203972    2.138583955280
 H   -1.436507105557    0.567744203972    2.513583955280
 H   -1.479476105557    2.216134203972    1.830581955280
 C    0.252492894443   -0.757255796028   -1.405416044720
 C    1.658492894443   -1.074255796028   -0.881416044720
 H    0.236492894443   -1.214255796028   -2.397416044720
 H   -0.554507105557   -1.338255796028   -0.957416044720
 H    0.100492894443    0.268744203972   -1.723416044720
 H    1.712492894443   -0.772255796028    0.160583955280
 H    2.410682894443   -0.509575796028   -1.451817044720
 H    1.824322894443   -2.159675796028   -0.947460044720
