33
0 1 
 C    1.462324693083    1.182555582979    1.670763826040
 C    2.053324693083    2.300555582979    2.516763826040
 C    0.069324693083    0.768555582979    2.079763826040
 C   -1.026675306917    1.380555582979    1.494763826040
 C   -0.141675306917   -0.262444417021    2.987763826040
 C   -2.309675306917    0.981555582979    1.822763826040
 C   -1.428675306917   -0.646444417021    3.329763826040
 C   -2.512675306917   -0.034444417021    2.736763826040
 H    1.421324693083    1.515555582979    0.630763826040
 H    2.119324693083    0.311555582979    1.698763826040
 H    1.314324693083    3.100555582979    2.599763826040
 H   -0.886675306917    2.174555582979    0.774763826040
 H    0.699324693083   -0.751444417021    3.451763826040
 H   -3.158675306917    1.453555582979    1.360763826040
 H   -1.587675306917   -1.437444417021    4.048763826040
 H   -3.515675306917   -0.352444417021    2.980763826040
 H    2.950674693083    2.687835582979    2.012003826040
 H    2.279774693083    1.938235582979    3.530393826040
 C    2.223324693083   -1.994444417021   -3.959236173960
 C    0.148324693083   -0.723444417021   -1.048236173960
 C   -0.829675306917    0.013555582979   -1.715236173960
 C    1.136324693083   -1.368444417021   -1.788236173960
 C    1.143324693083   -1.293444417021   -3.175236173960
 C   -0.831675306917    0.077555582979   -3.101236173960
 C    0.157324693083   -0.560444417021   -3.828236173960
 H    0.126324693083   -0.818444417021    0.025763826040
 H   -1.604675306917    0.515555582979   -1.152236173960
 H    1.895324693083   -1.940444417021   -1.272236173960
 H   -1.592675306917    0.658555582979   -3.599236173960
 H    3.121324693083   -2.047444417021   -3.341236173960
 H    2.477324693083   -1.391444417021   -4.832236173960
 H    0.168324693083   -0.481444417021   -4.905236173960
 H    1.954214693083   -3.008056417021   -4.291158173960
