15
0 1 
 C    0.383439454114    1.656357093990    2.922502402961
 N    0.086439454114    0.322357093990    2.322502402961
 H   -0.083560545886    0.359357093990    1.313502402961
 H    0.853439454114   -0.321642906010    2.477502402961
 H   -0.738560545886   -0.090642906010    2.740502402961
 H    1.367439454114    2.003357093990    2.594502402961
 H    0.415439454114    1.565357093990    4.013502402961
 H   -0.368530545886    2.412647093990    2.653122402961
 C   -0.794560545886   -1.107642906010   -2.538497597039
 C   -0.084560545886   -0.473642906010   -1.355497597039
 O   -0.741560545886   -0.272642906010   -0.311497597039
 O    1.131439454114   -0.197642906010   -1.454497597039
 H   -1.847560545886   -0.816642906010   -2.538497597039
 H   -0.743560545886   -2.191642906010   -2.427497597039
 H   -0.341230545886   -0.829172906010   -3.501277597039
