20
0 1 
 C   -1.217240943440   -2.535928227464    3.338867062348
 C   -0.716240943440   -1.003928227464    1.429867062348
 N   -0.849240943440   -0.764928227464    0.150867062348
 N   -1.295240943440   -2.082928227464    1.939867062348
 N    0.007759056560   -0.183928227464    2.155867062348
 H   -1.409240943440   -1.373928227464   -0.432132937652
 H   -0.391240943440    0.048071772536   -0.280132937652
 H   -1.779240943440   -2.678928227464    1.271867062348
 H    0.116759056560   -0.335928227464    3.145867062348
 H    0.437759056560    0.623071772536    1.725867062348
 H   -0.300240943440   -2.183928227464    3.815867062348
 H   -1.187240943440   -3.627928227464    3.353867062348
 H   -2.088050943440   -2.199788227464    3.920842162348
 C    1.414759056560    2.960071772536   -2.636132937652
 C    1.015759056560    1.567071772536   -2.231132937652
 O    0.350759056560    1.422071772536   -1.179132937652
 O    1.272759056560    0.607071772536   -2.992132937652
 H    1.761759056560    2.979071772536   -3.669132937652
 H    2.255759056560    3.248071772536   -2.003132937652
 H    0.587059056560    3.667381772536   -2.479192937652
