17
0 1 
 C    1.171318900790   -2.325717442489   -0.618379467354
 C    1.781318900790   -3.521717442489    0.110620532646
 H    1.218318900790   -2.476717442489   -1.697379467354
 H    0.130318900790   -2.207717442489   -0.317379467354
 H    1.709318900790   -1.417717442489   -0.348379467354
 H    1.828318900790   -3.286717442489    1.171620532646
 H    2.778248900790   -3.838954442489   -0.229225467354
 H    1.119228900790   -4.387707442489   -0.036683467354
 C   -0.776681099210    0.738282557511   -1.161379467354
 C   -1.603681099210    2.383282557511    0.776620532646
 S   -0.229681099210    1.273282557511    0.442620532646
 H   -1.060681099210    1.578282557511   -1.783379467354
 H    0.025318900790    0.188282557511   -1.653379467354
 H   -1.639681099210    0.082282557511   -1.048379467354
 H   -2.506681099210    1.804282557511    0.950620532646
 H   -1.755681099210    3.032282557511   -0.085379467354
 H   -1.373971099210    2.993182557511    1.662762532646
