19
0 1 
 C    0.148203151908    1.847040163036    1.164725244905
 C    0.939203151908    2.780040163036    2.074725244905
 H   -0.250796848092    1.016040163036    1.734725244905
 H   -0.683796848092    2.394040163036    0.721725244905
 H    0.793203151908    1.473040163036    0.367725244905
 H    0.255203151908    3.144040163036    2.835725244905
 H    1.784403151908    2.267040163036    2.556875244905
 H    1.294543151908    3.647450163036    1.499103244905
 C   -0.224796848092   -1.503959836964   -0.562274755095
 C   -1.550796848092   -2.133959836964   -0.990274755095
 C    0.675203151908   -1.091959836964   -1.734274755095
 H   -0.426796848092   -0.636959836964    0.061725244905
 H    0.312203151908   -2.225959836964    0.050725244905
 H   -1.913796848092   -2.736959836964   -0.158274755095
 H   -1.394796848092   -2.816959836964   -1.822274755095
 H    0.226203151908   -0.280959836964   -2.302274755095
 H    1.606203151908   -0.683959836964   -1.335274755095
 H   -2.344839848092   -1.410989836964   -1.228631755095
 H    0.897463151908   -1.924889836964   -2.417527755095
