25
-1 1 
 C    1.294716614235    2.260096437509   -0.157518047643
 C    1.592716614235    3.383096437509   -1.152518047643
 C    2.527716614235    1.421096437509    0.166481952357
 O    3.242716614235    1.019096437509   -0.783518047643
 O    2.765716614235    1.160096437509    1.372481952357
 H    0.889716614235    2.690096437509    0.760481952357
 H    0.530716614235    1.612096437509   -0.587518047643
 H    1.970716614235    2.936096437509   -2.072518047643
 H    2.354148614235    4.065286437509   -0.746518047643
 H    0.671505614235    3.940296437509   -1.378135047643
 C   -4.071283385765   -2.093903562491   -0.620518047643
 C   -0.111283385765   -0.987903562491    0.628481952357
 C   -0.286283385765   -1.835903562491   -0.463518047643
 C   -1.220283385765   -0.492903562491    1.311481952357
 C   -1.572283385765   -2.196903562491   -0.864518047643
 C   -2.506283385765   -0.858903562491    0.908481952357
 C   -2.688283385765   -1.715903562491   -0.176518047643
 H    0.885716614235   -0.719903562491    0.948481952357
 H    0.574716614235   -2.197903562491   -1.002518047643
 H   -1.083283385765    0.167096437509    2.158481952357
 H   -1.701283385765   -2.851903562491   -1.715518047643
 H   -3.362283385765   -0.472903562491    1.445481952357
 H   -4.786283385765   -1.872903562491    0.174481952357
 H   -4.082283385765   -3.171903562491   -0.786518047643
 H   -4.386013385765   -1.583003562491   -1.542434047643
