27
0 1 
 C    1.221410745651   -2.422569831079   -1.366997286631
 C    2.603410745651   -1.799569831079   -1.220997286631
 C    0.543410745651   -2.075569831079   -2.686997286631
 H    1.285410745651   -3.507569831079   -1.280997286631
 H    0.592410745651   -2.053569831079   -0.554997286631
 H    2.506410745651   -0.721569831079   -1.361997286631
 H    3.228410745651   -2.157569831079   -1.992997286631
 H   -0.510589254349   -2.347569831079   -2.590997286631
 H    0.597410745651   -0.998569831079   -2.861997286631
 H    3.053185745651   -1.964369831079   -0.230777286631
 H    0.971410745651   -2.621289831079   -3.540817286631
 C    0.764410745651    1.287430168921    3.285002713369
 C    0.104410745651    1.093430168921   -0.459997286631
 C   -1.217589254349    0.654430168921   -0.486997286631
 C    0.741410745651    1.298430168921    0.764002713369
 C    0.065410745651    1.074430168921    1.968002713369
 C   -1.902589254349    0.414430168921    0.706002713369
 C   -1.259589254349    0.623430168921    1.927002713369
 O   -1.843589254349    0.436430168921   -1.681997286631
 H    0.615410745651    1.273430168921   -1.390997286631
 H    1.770410745651    1.631430168921    0.783002713369
 H   -2.928589254349    0.075430168921    0.687002713369
 H   -2.760589254349    0.163430168921   -1.564997286631
 H    0.055410745651    1.686430168921    4.013002713369
 H    1.544410745651    2.036430168921    3.142002713369
 H   -1.795589254349    0.445430168921    2.850002713369
 H    1.219920745651    0.367801168921    3.680973713369
