20
0 1 
 C    1.242980079115   -0.070888931563    0.176120070715
 C    2.651980079115   -0.549888931563    0.513120070715
 C    0.245980079115   -0.611888931563    1.169120070715
 O    0.238980079115   -0.198888931563    2.338120070715
 N   -0.555019920885   -1.596888931563    0.729120070715
 H    1.211980079115    1.019111068437    0.207120070715
 H    0.971980079115   -0.388888931563   -0.832879929285
 H    2.944980079115   -0.150888931563    1.488120070715
 H   -1.228019920885   -1.991888931563    1.368120070715
 H   -0.502019920885   -1.920888931563   -0.225879929285
 H    3.367570079115   -0.243425931563   -0.264063929285
 H    2.660560079115   -1.649771931563    0.526699070715
 C   -1.442019920885    1.164111068437   -1.844879929285
 C   -2.237019920885    1.881111068437   -2.959879929285
 H   -1.736019920885    1.530111068437   -0.862879929285
 H   -1.639019920885    0.092111068437   -1.891879929285
 H   -0.375019920885    1.333111068437   -1.992879929285
 H   -1.945019920885    1.472111068437   -3.928879929285
 H   -1.999359920885    2.954747068437   -2.931208929285
 H   -3.313505920885    1.706911068437   -2.815542929285
