16
0 1 
 C   -0.190980324935    1.847773471021    0.296335531271
 C   -0.157980324935    2.902773471021   -0.804664468729
 H   -0.582980324935    2.239773471021    1.233335531271
 H   -0.845980324935    1.043773471021   -0.030664468729
 H    0.811019675065    1.455773471021    0.479335531271
 H   -1.174980324935    3.066773471021   -1.159664468729
 H    0.241499675065    3.844463471021   -0.400154468729
 H    0.456389675065    2.557463471021   -1.649244468729
 C    0.048019675065   -1.821226528979   -0.252664468729
 C    0.302019675065   -2.926226528979    0.761335531271
 H   -0.605980324935   -1.075226528979    0.189335531271
 H    0.993019675065   -1.358226528979   -0.540664468729
 H   -0.417980324935   -2.224226528979   -1.151664468729
 H    0.777019675065   -3.768226528979    0.259335531271
 H   -0.643750324935   -3.253663528979    1.217745531271
 H    0.979859675065   -2.565289528979    1.548895531271
