16
0 1 
 C    0.897596219573    1.095311294538   -1.257221550914
 C   -0.255403780427    2.101311294538   -1.272221550914
 H    1.686596219573    1.413311294538   -1.943221550914
 H    1.321596219573    1.021311294538   -0.256221550914
 H    0.554596219573    0.096311294538   -1.532221550914
 H   -1.086403780427    1.682311294538   -0.705221550914
 H   -0.591763780427    2.292291294538   -2.301971550914
 H    0.067116219573    3.040211294538   -0.798471550914
 C   -0.874403780427   -1.078688705462    1.179778449086
 C    0.228596219573   -2.118688705462    1.351778449086
 H   -1.397403780427   -0.915688705462    2.123778449086
 H   -0.442403780427   -0.129688705462    0.867778449086
 H   -1.583403780427   -1.411688705462    0.421778449086
 H    0.754596219573   -2.176688705462    0.398778449086
 H   -0.191273780427   -3.108337705462    1.584808449086
 H    0.951196219573   -1.794667705462    2.115238449086
