23
0 1 
 C   -2.310673600358   -2.214581655644   -1.121960230599
 C   -3.369673600358   -3.318581655644   -0.982960230599
 H   -2.769673600358   -1.285581655644   -1.462960230599
 H   -1.821673600358   -2.043581655644   -0.163960230599
 H   -1.527673600358   -2.508581655644   -1.817960230599
 H   -2.887673600358   -4.230581655644   -0.627960230599
 H   -3.852129300358   -3.520261655644   -1.950722230599
 H   -4.125438700358   -3.004511655644   -0.247989230599
 C   -0.728673600358    1.945418344356   -1.120960230599
 C    0.507326399642   -0.067581655644   -0.270960230599
 C    0.310326399642    1.311418344356   -0.239960230599
 C    1.425326399642   -0.674581655644    0.586039769401
 C    2.161326399642    0.106418344356    1.475039769401
 C    1.053326399642    2.083418344356    0.648039769401
 C    1.977326399642    1.487418344356    1.498039769401
 H   -0.052673600358   -0.677581655644   -0.963960230599
 H    1.555326399642   -1.745581655644    0.571039769401
 H   -0.896673600358    2.981418344356   -0.821960230599
 H   -1.663673600358    1.406418344356   -0.958960230599
 H    2.862326399642   -0.359581655644    2.152039769401
 H    0.906326399642    3.153418344356    0.688039769401
 H    2.539326399642    2.083418344356    2.197039769401
 H   -0.481685600358    1.907368344356   -2.192197230599
