16
0 1 
 C    2.060915192748    0.834843184519   -0.395506892346
 C    1.582915192748    2.245843184519   -0.011506892346
 H    2.991915192748    0.893843184519   -0.964506892346
 H    2.226915192748    0.236843184519    0.501493107654
 H    1.303915192748    0.343843184519   -1.008506892346
 H    0.688915192748    2.160843184519    0.610493107654
 H    1.353165192748    2.816053184519   -0.923686892346
 H    2.370525192748    2.766843184519    0.552613107654
 C   -1.228084807252   -1.061156815481    0.165493107654
 C   -2.415084807252   -2.017156815481    0.247493107654
 H   -0.406084807252   -1.427156815481    0.783493107654
 H   -0.886084807252   -0.986156815481   -0.866506892346
 H   -1.522084807252   -0.065156815481    0.496493107654
 H   -3.264084807252   -1.568156815481   -0.261506892346
 H   -2.705154807252   -2.248486815481    1.283033107654
 H   -2.159724807252   -2.951406815481   -0.274016892346
