16
0 1 
 C    0.478946057303   -0.375440950349   -1.466511060601
 C    0.758946057303    0.206559049651   -2.850511060601
 H    1.074946057303    0.155559049651   -0.723511060601
 H   -0.584053942697   -0.265440950349   -1.257511060601
 H    0.741946057303   -1.432440950349   -1.443511060601
 H    1.727946057303   -0.115440950349   -3.204511060601
 H    0.812946057303    1.289559049651   -2.730511060601
 H   -0.013585942697   -0.009690950349   -3.603121060601
 C   -0.685053942697   -0.340440950349    1.535488939399
 C   -0.544053942697    0.503559049651    2.778488939399
 H   -1.463053942697   -1.073440950349    1.721488939399
 H   -0.996053942697    0.316559049651    0.727488939399
 H    0.206946057303   -0.896440950349    1.268488939399
 H   -0.800053942697   -0.110440950349    3.644488939399
 H   -1.281053942697    1.302559049651    2.712488939399
 H    0.468533057303    0.907729049651    2.924478939399
