23
0 1 
 C   -0.791768064604   -0.055476163447   -2.683909052625
 C   -1.977768064604   -0.847476163447   -3.259909052625
 C    0.071231935396    0.665523836553   -3.736909052625
 H   -1.189768064604    0.680523836553   -1.991909052625
 H   -0.152768064604   -0.759476163447   -2.153909052625
 H   -1.579768064604   -1.554476163447   -3.994909052625
 H    0.378231935396   -0.066476163447   -4.484909052625
 H   -0.516768064604    1.437523836553   -4.235909052625
 H   -2.686439064604   -0.156876163447   -3.740389052625
 H   -2.537230064604   -1.429836163447   -2.513009052625
 H    0.951859935396    1.126223836553   -3.265479052625
 C   -0.400768064604    1.779523836553    0.721090947375
 C    0.336231935396   -0.683476163447    0.905090947375
 C    0.175231935396    0.575523836553    1.387090947375
 C    1.178231935396   -0.597476163447    2.939090947375
 N    0.962231935396   -1.405476163447    1.895090947375
 N    0.673231935396    0.597523836553    2.671090947375
 H    0.036231935396   -1.048476163447   -0.063909052625
 H    1.258231935396   -2.373476163447    1.836090947375
 H   -0.391768064604    1.666523836553   -0.354909052625
 H    0.244231935396    2.626523836553    0.957090947375
 H    1.657231935396   -0.886476163447    3.868090947375
 H   -1.414014064604    2.002173836553    1.086820947375
