24
0 1 
 C    2.424450662147    0.341957363742    1.954914586131
 C   -1.226549337853   -0.048042636258    1.020914586131
 C   -1.177549337853   -1.010042636258    0.024914586131
 C   -0.061549337853    0.369957363742    1.654914586131
 C    1.166450662147   -0.167042636258    1.286914586131
 C    0.033450662147   -1.599042636258   -0.312085413869
 C    1.189450662147   -1.177042636258    0.317914586131
 O   -2.350549337853   -1.369042636258   -0.580085413869
 H   -2.181549337853    0.342957363742    1.328914586131
 H   -0.119549337853    1.104957363742    2.443914586131
 H    0.074450662147   -2.382042636258   -1.053085413869
 H   -2.141549337853   -1.893042636258   -1.375085413869
 H    2.893450662147   -0.484042636258    2.489914586131
 H    2.141450662147    1.086957363742    2.699914586131
 H    2.123450662147   -1.653042636258    0.063914586131
 H    3.158455662147    0.799727363742    1.275444586131
 C   -0.241549337853    2.143957363742   -1.658085413869
 C    0.472450662147    2.148957363742   -3.003085413869
 H   -0.684549337853    3.119957363742   -1.456085413869
 H   -1.019549337853    1.386957363742   -1.672085413869
 H    0.460450662147    1.889957363742   -0.862085413869
 H   -0.169549337853    2.647957363742   -3.727085413869
 H    1.425357662147    2.693577363742   -2.929895413869
 H    0.635775662147    1.116977363742   -3.347075413869
