23
0 1 
 C   -1.356222097716    0.398832502678   -2.347244118470
 C   -1.171222097716    0.581832502678   -3.876244118470
 C   -2.439222097716   -0.628167497322   -2.004244118470
 H   -0.410222097716    0.070832502678   -1.919244118470
 H   -1.624222097716    1.354832502678   -1.897244118470
 H   -2.149222097716    0.859832502678   -4.270244118470
 H   -3.408222097716   -0.283167497322   -2.369244118470
 H   -2.212222097716   -1.587167497322   -2.469244118470
 H   -0.825572097716   -0.355617497322   -4.336364118470
 H   -0.516092097716    1.451172502678   -4.034504118470
 H   -2.474472097716   -0.767717497322   -0.913702118470
 C   -0.115222097716    1.564832502678    2.612755881530
 C    0.943777902284    0.476832502678    0.507755881530
 C    0.569777902284    0.487832502678    1.807755881530
 C    1.522777902284   -1.463167497322    1.372755881530
 N    1.520777902284   -0.750167497322    0.260755881530
 N    0.940777902284   -0.748167497322    2.337755881530
 H    0.810777902284    1.283832502678   -0.199244118470
 H    1.913777902284   -1.073167497322   -0.624244118470
 H   -1.016222097716    1.135832502678    3.051755881530
 H   -0.398222097716    2.364832502678    1.935755881530
 H    1.920777902284   -2.468167497322    1.471755881530
 H    0.543707902284    1.938492502678    3.410370881530
