31
0 1 
 C    5.014985766516    0.394172136782   -1.804371969147
 C    0.782985766516    0.697172136782   -1.035371969147
 C    1.241985766516    0.417172136782   -2.322371969147
 C    1.695985766516    0.881172136782    0.001628030853
 C    2.614985766516    0.325172136782   -2.570371969147
 C    3.064985766516    0.784172136782   -0.250371969147
 C    3.536985766516    0.509172136782   -1.538371969147
 H   -0.279014233484    0.771172136782   -0.841371969147
 H    0.534985766516    0.269172136782   -3.127371969147
 H    1.329985766516    1.076172136782    0.997628030853
 H    2.959985766516    0.106172136782   -3.569371969147
 H    3.730985766516    0.887172136782    0.590628030853
 H    5.226985766516    0.583172136782   -2.853371969147
 H    5.298985766516   -0.640827863218   -1.605371969147
 H    5.632405766516    1.045422136782   -1.168241969147
 C    0.019985766516   -1.538827863218    2.752628030853
 C   -2.424014233484   -0.971827863218   -0.116371969147
 C   -3.280014233484   -0.011827863218    0.418628030853
 C   -1.344014233484   -1.437827863218    0.634628030853
 C   -1.104014233484   -0.956827863218    1.925628030853
 C   -3.051014233484    0.485172136782    1.703628030853
 C   -1.964014233484    0.011172136782    2.450628030853
 O   -4.344014233484    0.418172136782   -0.318371969147
 H   -2.603014233484   -1.355827863218   -1.109371969147
 H   -0.689014233484   -2.188827863218    0.212628030853
 H   -3.712014233484    1.232172136782    2.114628030853
 H   -4.857014233484    1.108172136782    0.169628030853
 H    0.260985766516   -0.879827863218    3.587628030853
 H    0.901985766516   -1.602827863218    2.117628030853
 H   -1.785014233484    0.408172136782    3.437628030853
 H   -0.231394233484   -2.542887863218    3.125008030853
