21
-1 1 
 C    1.446705070932   -0.204861327575    1.029686099173
 C    2.016705070932   -1.176861327575   -0.014313900827
 C    1.771705070932   -0.686861327575    2.484686099173
 C    2.102705070932    1.171138672425    0.805686099173
 H    0.365705070932   -0.141861327575    0.897686099173
 H    3.106705070932   -1.112861327575    0.018686099173
 H    2.852705070932   -0.744861327575    2.625686099173
 H    1.355705070932    0.011138672425    3.213686099173
 H    1.338705070932   -1.673861327575    2.660686099173
 H    1.888705070932    1.528138672425   -0.203313900827
 H    1.711705070932    1.886138672425    1.528686099173
 H    3.182705070932    1.084138672425    0.932686099173
 H    1.683745070932   -0.901511327575   -1.025903900827
 H    1.726265070932   -2.213741327575    0.210476099173
 C   -3.110294929068    0.860138672425   -1.017313900827
 C   -1.745294929068    0.184138672425   -1.069313900827
 O   -1.617294929068   -0.906861327575   -0.490313900827
 O   -0.804294929068    0.744138672425   -1.669313900827
 H   -3.084294929068    1.769138672425   -1.619313900827
 H   -3.336294929068    1.125138672425    0.018686099173
 H   -3.915164929068    0.219088672425   -1.406213900827
