18
-1 1 
 C    0.369924512419    0.823677979762    2.540039519708
 C   -0.087075487581   -0.294322020238    3.477039519708
 H    1.408924512419    0.671677979762    2.249039519708
 H   -0.263075487581    0.815677979762    1.656039519708
 H    0.263924512419    1.792677979762    3.026039519708
 H   -1.156075487581   -0.179322020238    3.657039519708
 H    0.441166512419   -0.216808020238    4.438779519708
 H    0.090375512419   -1.270302020238    3.001669519708
 C    0.632924512419    0.702677979762   -1.239960480292
 C    1.911924512419   -0.081322020238   -1.555960480292
 C   -0.610075487581   -0.156322020238   -1.151960480292
 O   -0.532075487581   -1.385322020238   -1.398960480292
 O   -1.679075487581    0.420677979762   -0.833960480292
 H    0.754924512419    1.232677979762   -0.295960480292
 H    0.487924512419    1.449677979762   -2.024960480292
 H    1.775924512419   -0.647322020238   -2.477960480292
 H    2.114924512419   -0.774322020238   -0.738960480292
 H    2.768780512419    0.595256979762   -1.690270480292
