24
0 1 
 C   -0.494800350854   -2.105606705444    1.993216279089
 C   -0.258800350854   -2.321606705444    3.502216279089
 H   -1.178800350854   -2.860606705444    1.603216279089
 H   -0.926800350854   -1.122606705444    1.809216279089
 H    0.442199649146   -2.143606705444    1.439216279089
 H    0.493199649146   -1.599606705444    3.828216279089
 H    0.119669649146   -3.333476705444    3.709306279089
 H   -1.182961350854   -2.151946705444    4.074176279089
 C   -1.139800350854    0.159393294556   -3.374783720911
 C    0.674199649146    0.832393294556    0.467216279089
 C    1.279199649146   -0.019606705444   -0.453783720911
 C   -0.509800350854    1.476393294556    0.132216279089
 C    0.693199649146   -0.229606705444   -1.700783720911
 C   -1.095800350854    1.249393294556   -1.112783720911
 C   -0.505800350854    0.392393294556   -2.035783720911
 O    1.248199649146    1.045393294556    1.688216279089
 H    2.208199649146   -0.515606705444   -0.206783720911
 H    2.032199649146    0.501393294556    1.818216279089
 H   -0.973800350854    2.140393294556    0.846216279089
 H    1.183199649146   -0.880606705444   -2.412783720911
 H   -2.014800350854    1.759393294556   -1.362783720911
 H   -0.341800350854    0.134393294556   -4.111783720911
 H   -1.783800350854    1.002393294556   -3.625783720911
 H   -1.713846350854   -0.776306705444   -3.445103720911
