16
0 1 
 C    1.885681812180   -0.190754345368   -0.452367289491
 C    2.590681812180    1.056245654632    0.083632710509
 H    1.199681812180    0.089245654632   -1.252367289491
 H    1.323681812180   -0.669754345368    0.349632710509
 H    2.615681812180   -0.901754345368   -0.844367289491
 H    1.834681812180    1.760245654632    0.411632710509
 H    3.218991812180    1.508630154632   -0.697757289491
 H    3.235651812180    0.788054714632    0.933392710509
 C   -1.619318187820   -0.842754345368    0.367632710509
 C   -2.862318187820   -0.024754345368    0.002632710509
 H   -1.025318187820   -0.301754345368    1.103632710509
 H   -1.015318187820   -1.006754345368   -0.525367289491
 H   -1.914318187820   -1.810754345368    0.777632710509
 H   -2.531318187820    0.953245654632   -0.347367289491
 H   -3.479478187820    0.119927854632    0.901622710509
 H   -3.399838187820   -0.504557345368   -0.828547289491
