31
0 1 
 C    0.960864940760    1.212260515853   -3.025195839283
 C    1.340864940760    2.104260515853   -0.701195839283
 C    1.628864940760    1.138260515853   -1.665195839283
 C    1.954864940760    2.074260515853    0.563804160717
 C    2.846864940760    1.043260515853    0.901804160717
 C    2.515864940760    0.102260515853   -1.332195839283
 C    3.130864940760    0.051260515853   -0.047195839283
 O    3.358864940760    1.004260515853    2.180804160717
 H    0.653864940760    2.907260515853   -0.932195839283
 H    1.712864940760    2.839260515853    1.287804160717
 H    0.125864940760    1.910260515853   -2.958195839283
 H    0.532864940760    0.236260515853   -3.260195839283
 H    2.727864940760   -0.678739484147   -2.050195839283
 H    3.058864940760    1.744260515853    2.714804160717
 H    3.801864940760   -0.756739484147    0.208804160717
 H    1.616424940760    1.539320515853   -3.845726839283
 C   -4.943135059240   -1.196739484147    1.116804160717
 C   -1.578135059240   -0.178739484147   -0.289195839283
 C   -0.836135059240   -1.347739484147   -0.127195839283
 C   -2.913135059240   -0.141739484147    0.110804160717
 C   -3.514135059240   -1.265739484147    0.688804160717
 C   -1.440135059240   -2.468739484147    0.434804160717
 C   -2.773135059240   -2.428739484147    0.849804160717
 H   -1.122135059240    0.696260515853   -0.730195839283
 H    0.198864940760   -1.383739484147   -0.439195839283
 H   -3.482135059240    0.768260515853   -0.023195839283
 H   -0.871135059240   -3.381739484147    0.548804160717
 H   -5.470135059240   -2.066739484147    0.720804160717
 H   -5.399135059240   -0.323739484147    0.662804160717
 H   -3.227135059240   -3.306739484147    1.289804160717
 H   -5.075645059240   -1.174419484147    2.208564160717
