19
0 1 
 C   -0.601596673200   -0.730154584488   -0.979371196947
 C   -0.009596673200   -1.985154584488   -0.497371196947
 C   -0.510596673200   -0.755154584488   -2.490371196947
 H   -0.094596673200    0.138845415512   -0.567371196947
 H   -1.651596673200   -0.716154584488   -0.689371196947
 H    1.003403326800   -1.774154584488   -0.150371196947
 H   -0.579596673200   -2.398154584488    0.332628803053
 H   -1.491596673200   -0.535154584488   -2.915371196947
 H    0.057015326800   -2.700868584488   -1.330031196947
 H   -0.230814673200   -1.791022584488   -2.732651196947
 H    0.200742326800    0.003078115512   -2.849651196947
 C    0.711403326800    0.977845415512    1.895628803053
 C    0.367403326800    2.447845415512    2.001628803053
 H   -0.175596673200    0.403845415512    1.630628803053
 H    1.489403326800    0.829845415512    1.145628803053
 H    1.079403326800    0.608845415512    2.850628803053
 H    1.219403326800    2.977845415512    2.416628803053
 H   -0.491187673200    2.588932415512    2.674618803053
 H    0.177410326800    2.897375415512    1.015818803053
