16
0 1 
 C   -1.363639608355   -0.165839740283   -1.250826626424
 C   -2.364639608355   -0.869839740283   -2.152826626424
 H   -1.857639608355    0.659160259717   -0.737826626424
 H   -0.978639608355   -0.868839740283   -0.511826626424
 H   -0.539639608355    0.219160259717   -1.849826626424
 H   -3.174639608355   -1.207839740283   -1.506826626424
 H   -2.771868408355   -0.180789740283   -2.907396626424
 H   -1.894099508355   -1.746889740283   -2.621206626424
 C    1.182360391645    0.387160259717    1.338173373576
 C    2.544360391645    0.654160259717    2.059173373576
 H    0.658360391645    1.328160259717    1.173173373576
 H    1.353360391645   -0.100839740283    0.378173373576
 H    0.554360391645   -0.265839740283    1.950173373576
 H    3.053360391645   -0.297839740283    2.223173373576
 H    2.374631391645    1.141610259717    3.030553373576
 H    3.241009391645    1.253620259717    1.454753373576
