20
0 1 
 C    0.308715404816    0.121852020751    2.352255893634
 C    1.437715404816   -1.529147979249    0.831255893634
 N    0.714715404816   -0.434147979249    1.047255893634
 N    1.909715404816   -2.263147979249    1.828255893634
 N    1.689715404816   -1.890147979249   -0.414744106366
 H    0.432715404816    0.102852020751    0.232255893634
 H    0.944715404816    0.974852020751    2.597255893634
 H    0.426715404816   -0.622147979249    3.141255893634
 H    1.770715404816   -1.962147979249    2.777255893634
 H    2.464715404816   -3.083147979249    1.639255893634
 H    1.329715404816   -1.341147979249   -1.179744106366
 H    2.240715404816   -2.712147979249   -0.606744106366
 H   -0.739854595184    0.453572020751    2.330465893634
 C   -2.673284595184    2.352852020751   -1.221744106366
 C   -1.469284595184    1.458852020751   -1.444744106366
 O   -0.427284595184    1.783852020751   -0.818744106366
 O   -1.551284595184    0.451852020751   -2.193744106366
 H   -2.448284595184    3.337852020751   -1.639744106366
 H   -2.825284595184    2.485852020751   -0.148744106366
 H   -3.607104595184    1.994192020751   -1.679274106366
