32
0 1 
 C    0.426632738447    4.292825190947   -0.018658466829
 C    1.148632738447    1.873825190947    0.124341533171
 C    1.111632738447    3.070825190947   -0.600658466829
 C    1.766632738447    0.734825190947   -0.396658466829
 C    2.323632738447    0.767825190947   -1.665658466829
 C    1.685632738447    3.093825190947   -1.875658466829
 C    2.295632738447    1.949825190947   -2.399658466829
 O    2.916632738447   -0.357174809053   -2.170658466829
 H    0.702632738447    1.831825190947    1.109341533171
 H    1.787632738447   -0.180174809053    0.176341533171
 H   -0.214367261553    3.964825190947    0.799341533171
 H   -0.230367261553    4.723825190947   -0.775658466829
 H    1.665632738447    4.005825190947   -2.455658466829
 H    2.913632738447   -1.083174809053   -1.537658466829
 H    2.759632738447    1.968825190947   -3.372658466829
 H    1.106912738447    5.068135190947    0.363595533171
 C   -2.482367261553    0.797825190947    2.052341533171
 C   -0.771367261553   -1.004174809053    1.627341533171
 C   -2.093367261553   -0.576174809053    1.560341533171
 C   -0.412367261553   -2.291174809053    1.186341533171
 C   -1.386367261553   -3.151174809053    0.699341533171
 C   -3.063367261553   -1.458174809053    1.078341533171
 C   -2.714367261553   -2.739174809053    0.636341533171
 O   -1.023367261553   -4.402174809053    0.309341533171
 H   -0.011367261553   -0.338174809053    2.010341533171
 H    0.618632738447   -2.612174809053    1.236341533171
 H   -3.558367261553    0.936825190947    1.933341533171
 H   -1.971367261553    1.538825190947    1.437341533171
 H   -4.098367261553   -1.146174809053    1.047341533171
 H   -0.072367261553   -4.537174809053    0.300341533171
 H   -3.460367261553   -3.423174809053    0.260341533171
 H   -2.205297261553    0.976555190947    3.101763533171
