27
1 1 
 C    1.847514071786    1.570828901871   -1.060804743663
 C    1.351514071786    0.660828901871   -2.179804743663
 N    3.096514071786    1.031828901871   -0.444804743663
 H    2.044514071786    2.568828901871   -1.463804743663
 H    1.060514071786    1.664828901871   -0.303804743663
 H    1.086514071786   -0.311171098129   -1.760804743663
 H    2.154514071786    0.504828901871   -2.904804743663
 H    3.847514071786    0.966828901871   -1.121804743663
 H    3.417514071786    1.634828901871    0.304195256337
 H    2.950514071786    0.108828901871   -0.051804743663
 H    0.475594071786    1.064658901871   -2.708661743663
 C   -1.664485928214   -2.346171098129   -1.618804743663
 C   -1.549485928214    0.784828901871    0.582195256337
 C   -0.562485928214    0.426828901871    1.505195256337
 C   -1.915485928214   -0.108171098129   -0.427804743663
 C   -1.311485928214   -1.369171098129   -0.518804743663
 C    0.050514071786   -0.826171098129    1.417195256337
 C   -0.331485928214   -1.715171098129    0.418195256337
 O   -0.191485928214    1.316828901871    2.475195256337
 H   -2.031485928214    1.743828901871    0.670195256337
 H   -2.656485928214    0.201828901871   -1.140804743663
 H    0.810514071786   -1.110171098129    2.132195256337
 H    0.485514071786    0.962828901871    3.057195256337
 H   -1.270485928214   -3.337171098129   -1.381804743663
 H   -1.129485928214   -1.999171098129   -2.504804743663
 H    0.147514071786   -2.685171098129    0.362195256337
 H   -2.733980928214   -2.428611098129   -1.862495743663
