30
0 1 
 C   -2.344676700471   -0.653266405587   -1.306358194640
 C   -3.804676700471   -0.466266405587   -0.881358194640
 C   -1.737676700471    0.592733594413   -1.883358194640
 C   -1.245676700471    0.826733594413   -3.127358194640
 C   -1.078676700471    2.692733594413   -1.966358194640
 N   -1.679676700471    1.786733594413   -1.200358194640
 N   -0.857676700471    2.154733594413   -3.161358194640
 H   -1.764676700471   -0.979266405587   -0.454358194640
 H   -2.273676700471   -1.442266405587   -2.053358194640
 H   -3.888676700471    0.393733594413   -0.214358194640
 H   -1.171676700471    0.102733594413   -3.926358194640
 H   -0.898676700471    3.727733594413   -1.701358194640
 H   -0.471676700471    2.652733594413   -3.957358194640
 H   -4.173536700471   -1.377752405587   -0.388268194640
 H   -4.403146700471   -0.277540405587   -1.784808194640
 C    4.126323299529   -1.779266405587    2.830641805360
 C    0.252323299529   -0.441266405587    1.387641805360
 C    0.886323299529   -1.530266405587    0.764641805360
 C    0.871323299529    0.214733594413    2.474641805360
 C    2.153323299529   -1.975266405587    1.277641805360
 C    2.133323299529   -0.219266405587    2.933641805360
 C    2.778323299529   -1.318266405587    2.342641805360
 H   -0.707676700471   -0.083266405587    1.057641805360
 H    0.416323299529   -2.040266405587   -0.065358194640
 H    0.375323299529    1.025733594413    2.980641805360
 H    2.624323299529   -2.833266405587    0.821641805360
 H    2.612323299529    0.359733594413    3.672641805360
 H    4.008323299529   -2.742266405587    3.328641805360
 H    4.511323299529   -1.070266405587    3.560641805360
 H    4.860373299529   -1.883928405587    2.018101805360
