16
0 1 
 C    0.322591409215    1.657866741331   -0.673164963703
 C    0.191591409215    2.456866741331   -1.962164963703
 H    0.763591409215    0.681866741331   -0.877164963703
 H    0.977591409215    2.187866741331    0.017835036297
 H   -0.656408590785    1.530866741331   -0.211164963703
 H    1.172591409215    2.521866741331   -2.434164963703
 H   -0.139408590785    3.449866741331   -1.667164963703
 H   -0.542888590785    2.046586741331   -2.670824963703
 C   -0.364408590785   -1.333133258669    1.112835036297
 C   -0.152408590785   -2.787133258669    1.519835036297
 H    0.493591409215   -0.735133258669    1.419835036297
 H   -0.468408590785   -1.273133258669    0.028835036297
 H   -1.265408590785   -0.943133258669    1.583835036297
 H    0.765591409215   -3.143133258669    1.053835036297
 H   -0.070528590785   -2.859673258669    2.614385036297
 H   -0.998538590785   -3.398833258669    1.173595036297
