23
0 1 
 C   -0.814959688650   -1.854692551936    1.076143829323
 C    0.120040311350   -3.054692551936    1.356143829323
 O   -1.125959688650   -1.733692551936   -0.300856170677
 H   -1.740959688650   -1.993692551936    1.635143829323
 H   -0.336959688650   -0.942692551936    1.432143829323
 H   -0.311959688650   -3.954692551936    0.917143829323
 H   -1.486959688650   -2.577692551936   -0.616856170677
 H    0.272985311350   -3.188142551936    2.437253829323
 H    1.107025311350   -2.872082551936    0.906130829323
 C    0.281040311350    1.554307448064   -0.303856170677
 C   -0.266959688650    1.432307448064   -1.728856170677
 C    1.716040311350    1.034307448064   -0.265856170677
 C    0.223040311350    3.001307448064    0.187143829323
 H   -0.317959688650    0.946307448064    0.366143829323
 H   -0.037959688650    0.431307448064   -2.097856170677
 H    0.262040311350    2.147307448064   -2.360856170677
 H    2.340040311350    1.603307448064   -0.954856170677
 H    2.116040311350    1.125307448064    0.743143829323
 H    1.734040311350   -0.016692551936   -0.552856170677
 H   -0.806959688650    3.354307448064    0.214143829323
 H    0.632040311350    3.059307448064    1.196143829323
 H    0.813040311350    3.646307448064   -0.464856170677
 H   -1.349407688650    1.589907448064   -1.844909170677
