16
-1 1 
 C    1.053403110192    2.306664554755    1.454281600370
 C    0.031403110192    2.185664554755    0.346281600370
 O   -1.006596889808    1.546664554755    0.513281600370
 N    0.308403110192    2.806664554755   -0.798718399630
 H    1.735403110192    3.125664554755    1.221281600370
 H    1.652403110192    1.398664554755    1.500281600370
 H   -0.348596889808    2.725664554755   -1.561718399630
 H    1.171403110192    3.318664554755   -0.909718399630
 H    0.578533110192    2.537974554755    2.419161600370
 C    1.004403110192   -3.040335445245    0.121281600370
 C   -0.162596889808   -2.176335445245   -0.383718399630
 O    0.072403110192   -1.049335445245   -0.889718399630
 O   -1.328596889808   -2.623335445245   -0.290718399630
 H    1.686403110192   -2.427335445245    0.714281600370
 H    1.551403110192   -3.421335445245   -0.742718399630
 H    0.660273110192   -3.888865445245    0.730851600370
