16
0 1 
 C   -0.888295583136   -0.127690888544   -1.438110061727
 C   -1.987295583136   -0.611690888544   -2.306110061727
 H   -0.644295583136    0.905309111456   -1.668110061727
 H   -1.213295583136   -0.176690888544   -0.400110061727
 H    0.001704416864   -0.744690888544   -1.560110061727
 H   -2.856295583136    0.037309111456   -2.188110061727
 H   -2.247295583136   -1.610690888544   -1.955110061727
 H   -1.675893583136   -0.641244888544   -3.360700061727
 C    1.664704416864    0.626309111456    1.159889938273
 C    1.210704416864    0.111309111456    2.579889938273
 H    1.105704416864    1.524309111456    0.888889938273
 H    2.723704416864    0.875309111456    1.214889938273
 H    1.510704416864   -0.146690888544    0.405889938273
 H    1.421704416864    0.885309111456    3.311889938273
 H    0.128360416864   -0.075054888544    2.518249938273
 H    1.747364416864   -0.811483888544    2.845309938273
