26
0 1 
 C    2.192012304878   -0.153883262676   -2.075495439303
 C    3.553012304878    0.514116737324   -2.126495439303
 C    2.382012304878   -1.309883262676   -3.024495439303
 H    1.401012304878    0.517116737324   -2.409495439303
 H    1.989012304878   -0.520883262676   -1.066495439303
 H    3.634012304878    1.160116737324   -2.999495439303
 H    3.697012304878    1.079116737324   -1.210495439303
 H    2.364012304878   -0.968883262676   -4.060495439303
 H    1.645012304878   -2.060883262676   -2.829495439303
 H    4.239972304878   -0.341396262676   -2.205155439303
 H    3.373232304878   -1.691178262676   -2.737985439303
 C   -3.302987695122   -1.016883262676    0.358504560697
 C   -0.178987695122    1.157116737324    0.427504560697
 C   -1.326987695122    0.498116737324   -0.022495439303
 C    0.221012304878    1.036116737324    1.757504560697
 C   -2.081987695122   -0.286883262676    0.852504560697
 C   -0.530987695122    0.255116737324    2.638504560697
 C   -1.678987695122   -0.402883262676    2.183504560697
 H    0.403012304878    1.757116737324   -0.256495439303
 H   -1.624987695122    0.593116737324   -1.057495439303
 H    1.107012304878    1.549116737324    2.108504560697
 H   -0.222987695122    0.163116737324    3.671504560697
 H   -3.533987695122   -1.845883262676    1.025504560697
 H   -3.055987695122   -1.450883262676   -0.612495439303
 H   -2.256987695122   -1.010883262676    2.862504560697
 H   -4.193987695122   -0.382916262676    0.239321560697
