19
1 1 
 C    1.500467804509    1.487973509584   -0.074584380711
 C   -0.003532195491    0.165973509584    1.414415619289
 N    0.315467804509    0.693973509584    0.242415619289
 N    0.765467804509    0.344973509584    2.472415619289
 N   -1.096532195491   -0.577026490416    1.509415619289
 H   -0.366532195491    0.539973509584   -0.499584380711
 H    2.384467804509    1.048973509584    0.391415619289
 H    1.370467804509    2.514973509584    0.273415619289
 H    1.563467804509    0.953973509584    2.414415619289
 H    0.529467804509   -0.087026490416    3.353415619289
 H   -1.660532195491   -0.725026490416    0.678415619289
 H   -1.366532195491   -0.989026490416    2.386415619289
 H    1.631067804509    1.476493509584   -1.166744380711
 C   -0.364532195491   -1.178026490416   -3.208584380711
 O   -0.932532195491   -0.760026490416   -1.991584380711
 H   -1.895532195491   -0.910026490416   -2.062584380711
 H    0.348467804509   -0.430026490416   -3.554584380711
 H   -1.149532195491   -1.270026490416   -3.958584380711
 H    0.144587804509   -2.145846490416   -3.089764380711
