30
0 1 
 C    2.999250537916   -2.418205276947    3.354073511649
 C   -0.403749462084   -1.931205276947    0.745073511649
 C    0.859250537916   -2.090205276947    0.215073511649
 C   -0.570749462084   -1.905205276947    2.115073511649
 C    1.951250537916   -2.251205276947    1.067073511649
 C    0.531250537916   -2.074205276947    2.974073511649
 C    1.799250537916   -2.251205276947    2.452073511649
 H   -1.253749462084   -1.805205276947    0.088073511649
 H    0.997250537916   -2.092205276947   -0.856926488351
 H   -1.559749462084   -1.766205276947    2.532073511649
 H    2.932250537916   -2.391205276947    0.637073511649
 H    0.380250537916   -2.060205276947    4.045073511649
 H    3.457250537916   -3.380205276947    3.122073511649
 H    2.686250537916   -2.439205276947    4.399073511649
 H    3.744410537916   -1.621455276947    3.212923511649
 C   -2.786749462084    2.793794723053   -3.459926488351
 C   -1.042749462084    1.304794723053   -0.431926488351
 C    0.275250537916    1.624794723053   -0.690926488351
 C   -2.062749462084    1.678794723053   -1.328926488351
 C   -1.743749462084    2.403794723053   -2.462926488351
 C    0.584250537916    2.346794723053   -1.821926488351
 C   -0.419749462084    2.723794723053   -2.705926488351
 H   -1.292749462084    0.746794723053    0.460073511649
 H    1.052250537916    1.310794723053   -0.007926488351
 H   -3.087749462084    1.399794723053   -1.126926488351
 H    1.610250537916    2.612794723053   -2.036926488351
 H   -2.664749462084    3.854794723053   -3.669926488351
 H   -3.782749462084    2.649794723053   -3.039926488351
 H   -0.157749462084    3.281794723053   -3.593926488351
 H   -2.697849462084    2.233634723053   -4.402436488351
