27
0 1 
 C    1.580326315707   -1.470844783301    0.855120674824
 C    1.863326315707   -1.507844783301    2.353120674824
 C    2.765326315707   -0.953844783301    0.032120674824
 O    3.633326315707   -0.216844783301    0.521120674824
 N    2.779326315707   -1.311844783301   -1.245879325176
 H    1.302326315707   -2.465844783301    0.505120674824
 H    0.737326315707   -0.819844783301    0.646120674824
 H    2.599326315707   -0.746844783301    2.604120674824
 H    3.491326315707   -0.925844783301   -1.855879325176
 H    2.051326315707   -1.911844783301   -1.613879325176
 H    2.268526315707   -2.486764783301    2.648968674824
 H    0.969676315707   -1.225644783301    2.929105674824
 C    0.059326315707    1.130155216699   -1.680879325176
 C   -1.203673684293    0.995155216699    0.508120674824
 C   -1.217673684293    1.010155216699   -0.882879325176
 C   -2.378673684293    0.793155216699    1.242120674824
 C   -3.561673684293    0.622155216699    0.587120674824
 C   -2.430673684293    0.845155216699   -1.525879325176
 C   -3.602673684293    0.649155216699   -0.796879325176
 H   -0.276673684293    1.159155216699    1.040120674824
 H   -2.353673684293    0.802155216699    2.322120674824
 H    0.039326315707    0.368155216699   -2.461879325176
 H    0.897326315707    0.878155216699   -1.035879325176
 H   -4.470673684293    0.459155216699    1.147120674824
 H   -2.483673684293    0.818155216699   -2.603879325176
 H   -4.540673684293    0.505155216699   -1.313879325176
 H    0.252086315707    2.107465216699   -2.147482325176
