20
0 1 
 C    1.527530418031    1.754854731099   -1.518568530329
 C    1.526530418031    0.406854731099   -0.823568530329
 O    1.213530418031   -0.612145268901   -1.433568530329
 N    1.870530418031    0.383854731099    0.455431469671
 H    2.325530418031    2.379854731099   -1.115568530329
 H    0.574530418031    2.236854731099   -1.297568530329
 H    1.983530418031   -0.525145268901    0.898431469671
 H    2.160530418031    1.225854731099    0.925431469671
 H    1.643805418031    1.657954731099   -2.608105530329
 C   -1.474469581969   -0.715145268901    1.085431469671
 C   -2.405469581969   -1.387145268901    0.112431469671
 C   -2.267469581969    0.152854731099    2.061431469671
 H   -0.899469581969   -1.460145268901    1.626431469671
 H   -0.795469581969   -0.073145268901    0.529431469671
 H   -3.085469581969   -0.627145268901   -0.278568530329
 H   -3.006469581969   -2.126145268901    0.647431469671
 H   -2.855469581969    0.898854731099    1.522431469671
 H   -2.967469581969   -0.486145268901    2.603431469671
 H   -1.904976581969   -1.871125268901   -0.739197530329
 H   -1.590582581969    0.623894731099    2.789401469671
