25
0 1 
 C    1.593548828051    1.449229718764   -2.367096141528
 C    1.481548828051    0.390229718764   -1.304096141528
 C    1.654548828051    0.705229718764    0.046903858472
 C    1.208548828051   -0.928770281236   -1.654096141528
 C    1.574548828051   -0.284770281236    1.028903858472
 C    1.154548828051   -1.915770281236   -0.683096141528
 C    1.327548828051   -1.589770281236    0.650903858472
 O    1.264548828051   -2.561770281236    1.590903858472
 H    1.338548828051    2.416229718764   -1.931096141528
 H    0.864548828051    1.246229718764   -3.150096141528
 H    1.844548828051    1.729229718764    0.338903858472
 H    1.061548828051   -1.196770281236   -2.692096141528
 H    1.695548828051   -0.054770281236    2.072903858472
 H    0.985548828051   -2.946770281236   -0.952096141528
 H    1.389548828051   -2.222770281236    2.483903858472
 H    2.594478828051    1.506343718764   -2.819726141528
 C   -1.927451171949    0.650229718764   -0.010096141528
 C   -2.997451171949    0.614229718764   -1.099096141528
 S   -2.469451171949    1.488229718764    1.499903858472
 H   -1.628451171949   -0.372770281236    0.233903858472
 H   -1.049451171949    1.176229718764   -0.392096141528
 H   -3.359451171949    1.634229718764   -1.248096141528
 H   -1.452451171949    1.091229718764    2.274903858472
 H   -3.845621171949   -0.026610281236   -0.816376141528
 H   -2.534651171949    0.299955718764   -2.046226141528
