15
0 1 
 C    0.999968698760    1.986576368447   -2.116644178200
 O   -0.171031301240    1.534576368447   -1.449644178200
 H   -0.793031301240    1.244576368447   -2.130644178200
 H    0.743968698760    2.886576368447   -2.676644178200
 H    1.750898698760    2.247956368447   -1.356526178200
 H    1.376148698760    1.244256368447   -2.835987178200
 C   -0.262031301240   -1.583423631553   -0.353644178200
 C   -1.089031301240    0.061576368447    1.584355821800
 S    0.284968698760   -1.048423631553    1.250355821800
 H   -0.546031301240   -0.743423631553   -0.975644178200
 H    0.539968698760   -2.133423631553   -0.845644178200
 H   -1.125031301240   -2.239423631553   -0.240644178200
 H   -1.992031301240   -0.517423631553    1.758355821800
 H   -1.241031301240    0.710576368447    0.722355821800
 H   -0.859321301240    0.671476368447    2.470497821800
