23
0 1 
 C   -2.725273915281   -0.147239733319   -0.112564535564
 C   -2.693273915281    0.107760266681    1.389435464436
 H   -3.617273915281   -0.706239733319   -0.395564535564
 H   -2.740273915281    0.815760266681   -0.620564535564
 H   -1.843273915281   -0.712239733319   -0.412564535564
 H   -1.771273915281    0.635760266681    1.637435464436
 H   -2.714554915281   -0.855209733319    1.920705464436
 H   -3.541476915281    0.740470266681    1.689825464436
 C    0.671726084719    1.318760266681   -2.279564535564
 C    0.816726084719    0.501760266681   -1.017564535564
 C    0.878726084719   -0.882239733319   -1.046564535564
 C    0.876726084719    1.127760266681    0.223435464436
 C    0.982726084719   -1.614239733319    0.140435464436
 C    0.972726084719    0.393760266681    1.406435464436
 C    1.010726084719   -0.974239733319    1.373435464436
 H    1.476726084719    1.066760266681   -2.971564535564
 H    0.785726084719    2.373760266681   -2.021564535564
 H    0.819726084719   -1.412239733319   -1.978564535564
 H    0.850726084719    2.205760266681    0.280435464436
 H    1.036726084719   -2.686239733319    0.106435464436
 H    1.019726084719    0.903760266681    2.355435464436
 H    1.105726084719   -1.544239733319    2.285435464436
 H   -0.291623915281    1.176600266681   -2.791184535564
