27
0 1 
 C   -1.344291015870    1.130183663867    2.771417680360
 C    0.963708984130   -0.471816336133    0.324417680360
 C   -0.327291015870   -0.332816336133    0.895417680360
 C   -0.234291015870    0.658183663867    1.919417680360
 C    1.054708984130    1.086183663867    1.926417680360
 C    1.219708984130   -1.353816336133   -0.707582319640
 C    0.163708984130   -2.115816336133   -1.167582319640
 C   -1.375291015870   -1.116816336133    0.404417680360
 C   -1.120291015870   -1.998816336133   -0.619582319640
 N    1.780708984130    0.409183663867    0.974417680360
 H    2.760708984130    0.589183663867    0.766417680360
 H    2.208708984130   -1.432816336133   -1.132582319640
 H    1.445708984130    1.853183663867    2.582417680360
 H    0.325708984130   -2.810816336133   -1.978582319640
 H   -2.368291015870   -1.023816336133    0.822417680360
 H   -0.942291015870    1.474183663867    3.724417680360
 H   -1.997291015870    0.281183663867    2.979417680360
 H   -1.926291015870   -2.605816336133   -1.004582319640
 H   -1.935922015870    1.931053663867    2.303887680360
 C    0.051708984130    1.927183663867   -2.454582319640
 C   -0.752291015870    1.408183663867   -3.646582319640
 H    0.321708984130    1.099183663867   -1.804582319640
 H    0.952708984130    2.413183663867   -2.817582319640
 H   -0.517291015870    2.656183663867   -1.887582319640
 H   -0.958291015870    2.259183663867   -4.293582319640
 H   -1.711129015870    0.972993663867   -3.328392319640
 H   -0.156247015870    0.708223663867   -4.250562319640
