13
-1 1 
 C   -2.630373894877   -0.494860610816   -0.489499268169
 C   -1.173373894877   -0.094860610816   -0.304499268169
 O   -0.350373894877   -0.993860610816   -0.036499268169
 O   -0.843373894877    1.107139389184   -0.418499268169
 H   -2.867373894877   -1.366860610816    0.113500731831
 H   -2.747373894877   -0.788860610816   -1.533499268169
 H   -3.324158894877    0.330489389184   -0.271658268169
 C    2.542626105123    0.811139389184    0.935500731831
 O    2.125626105123   -0.347860610816    0.228500731831
 H    1.138626105123   -0.368860610816    0.204500731831
 H    3.438626105123    0.542139389184    1.497500731831
 H    2.813236105123    1.618689389184    0.239340731831
 H    1.774793105123    1.119859389184    1.660156731831
