31
0 1 
 C   -2.958613382820   -2.242715680072   -1.515464375444
 C   -1.499613382820   -0.056715680072   -1.186464375444
 C   -1.991613382820   -1.171715680072   -1.957464375444
 C   -0.642613382820    0.715284319928   -2.029464375444
 C   -1.448613382820   -1.059715680072   -3.182464375444
 C   -1.061613382820    1.536284319928    0.596535624556
 C   -0.220613382820    2.284284319928   -0.262464375444
 C   -1.702613382820    0.372284319928    0.145535624556
 C   -0.000613382820    1.878284319928   -1.585464375444
 N   -0.627613382820    0.071284319928   -3.254464375444
 H   -1.228613382820    1.849284319928    1.622535624556
 H    0.257386617180    3.183284319928    0.106535624556
 H   -2.345613382820   -0.169715680072    0.832535624556
 H    0.639386617180    2.424284319928   -2.266464375444
 H   -3.292613382820   -2.772715680072   -2.412464375444
 H   -3.817613382820   -1.730715680072   -1.077464375444
 H   -1.703613382820   -1.811715680072   -3.920464375444
 H   -0.102613382820    0.382284319928   -4.066464375444
 H   -2.550843382820   -2.932675680072   -0.762014375444
 C    1.204386617180   -0.443715680072    2.971535624556
 C    1.294386617180   -1.849715680072    3.598535624556
 C    2.510386617180    0.009284319928    2.351535624556
 O    3.591386617180   -0.289715680072    2.862535624556
 N    2.406386617180    0.741284319928    1.250535624556
 H    0.441386617180   -0.459715680072    2.192535624556
 H    0.918386617180    0.277284319928    3.737535624556
 H    2.092386617180   -2.412715680072    3.115535624556
 H    0.350386617180   -2.372715680072    3.439535624556
 H    3.245386617180    1.070284319928    0.789535624556
 H    1.493386617180    0.963284319928    0.876535624556
 H    1.491716617180   -1.839025680072    4.680635624556
