15
0 1 
 C    1.100812177480   -0.650324794424   -3.007481803004
 N    0.336812177480    0.436675205576   -2.287481803004
 H    0.360812177480    0.323675205576   -1.271481803004
 H    0.746812177480    1.343675205576   -2.476481803004
 H   -0.630187822520    0.476675205576   -2.583481803004
 H    2.119812177480   -0.724324794424   -2.615481803004
 H    1.140812177480   -0.465324794424   -4.086481803004
 H    0.544092177480   -1.577944794424   -2.808497803004
 C   -1.830187822520   -0.216324794424    1.421518196996
 C   -0.294187822520    0.061675205576    1.435518196996
 O    0.204812177480    0.610675205576    0.421518196996
 O    0.415812177480   -0.299324794424    2.426518196996
 H   -2.099187822520   -0.732324794424    0.499518196996
 H   -2.351187822520    0.742675205576    1.435518196996
 H   -2.173927822520   -0.810764794424    2.280867196996
