32
0 1 
 C   -2.339616101196    1.060343459200   -2.012642499823
 C   -1.331616101196   -0.102656540800   -0.014642499823
 C   -2.322616101196   -0.070656540800   -0.998642499823
 C   -1.325616101196   -1.097656540800    0.962357500177
 C   -3.313616101196   -1.067656540800   -1.006642499823
 C   -2.317616101196   -2.089656540800    0.977357500177
 C   -3.323616101196   -2.079656540800   -0.011642499823
 O   -2.253616101196   -3.041656540800    1.967357500177
 H   -0.563616101196    0.654343459200   -0.014642499823
 H   -0.550616101196   -1.107656540800    1.716357500177
 H   -2.569616101196    0.650343459200   -2.995642499823
 H   -1.353616101196    1.527343459200   -2.043642499823
 H   -4.071616101196   -1.055656540800   -1.780642499823
 H   -4.092616101196   -2.841656540800    0.001357500177
 H   -2.966616101196   -3.697656540800    1.916357500177
 H   -3.085926101196    1.850213459200   -1.841952499823
 C    4.060383898804   -0.726656540800   -1.532642499823
 C    1.532383898804    1.955343459200    0.722357500177
 C    1.749383898804    2.160343459200   -0.647642499823
 C    2.105383898804    0.850343459200    1.363357500177
 C    2.541383898804    1.271343459200   -1.374642499823
 C    2.898383898804   -0.041656540800    0.622357500177
 C    3.124383898804    0.168343459200   -0.750642499823
 O    0.739383898804    2.844343459200    1.399357500177
 H    1.310383898804    3.015343459200   -1.137642499823
 H    0.395383898804    3.547343459200    0.851357500177
 H    1.936383898804    0.690343459200    2.419357500177
 H    2.711383898804    1.436343459200   -2.429642499823
 H    3.347383898804   -0.896656540800    1.113357500177
 H    4.370383898804   -1.558656540800   -0.902642499823
 H    4.946383898804   -0.150656540800   -1.817642499823
 H    3.581893898804   -1.191536540800   -2.407242499823
