19
0 1 
 C    0.241880146306   -1.610379162780   -1.369717552460
 C    0.712880146306   -2.290379162780   -2.654717552460
 H    0.404880146306   -0.536379162780   -1.442717552460
 H   -0.823119853694   -1.792379162780   -1.218717552460
 H    0.801880146306   -2.007379162780   -0.519717552460
 H    0.185880146306   -1.857379162780   -3.502717552460
 H    1.801680146306   -2.231489162780   -2.799797552460
 H    0.451920146306   -3.357679162780   -2.602097552460
 C   -0.382119853694    1.180620837220    0.760282447540
 C    0.509880146306    0.493620837220    1.720282447540
 C   -1.120119853694    2.315620837220    1.589282447540
 H    0.350880146306    1.460620837220    0.008282447540
 H   -1.107119853694    0.506620837220    0.304282447540
 H    1.162880146306    1.220620837220    2.210282447540
 H    1.153880146306   -0.200379162780    1.176282447540
 H   -1.991119853694    1.920620837220    2.110282447540
 H   -0.443119853694    2.745620837220    2.332282447540
 H   -0.062299853694   -0.068439162780    2.473072447540
 H   -1.439413853694    3.136450837220    0.930282447540
