19
0 1 
 C   -2.493742403912   -0.160897881516    0.275748017094
 C   -2.481742403912   -1.307897881516    1.283748017094
 H   -1.830742403912    0.640102118484    0.604748017094
 H   -2.142742403912   -0.517897881516   -0.694251982906
 H   -3.501742403912    0.237102118484    0.162748017094
 H   -1.446742403912   -1.625897881516    1.410748017094
 H   -2.879695403912   -0.976983881515    2.254381627094
 H   -3.047829403912   -2.166788881516    0.894066017094
 C    1.095257596088    0.542102118484   -0.746251982906
 C    1.625257596088    0.921102118484    0.618748017094
 C    2.315257596088    0.048102118485   -1.484251982906
 H    0.633257596088    1.393102118484   -1.248251982906
 H    0.378257596088   -0.272897881515   -0.643251982906
 H    2.000257596088    1.945102118485    0.603748017094
 H    0.842257596088    0.800102118484    1.368748017094
 H    2.888257596088    0.912102118484   -1.824251982906
 H    2.056257596088   -0.593897881516   -2.327251982906
 H    2.459242596088    0.220255118485    0.771334017094
 H    2.873867596088   -0.499669881515   -0.711011982906
