21
0 1 
 C   -1.101733730988    0.957803785675   -0.453667687172
 C   -2.437733730988    1.699803785675   -0.166667687172
 C   -1.122733730988    0.037803785675   -1.679667687172
 O   -0.402733730988   -0.975196214325   -1.738667687172
 N   -1.902733730988    0.389803785675   -2.678667687172
 H   -0.316733730988    1.698803785675   -0.606667687172
 H   -0.828733730988    0.341803785675    0.399332312828
 H   -2.688733730988    2.346803785675   -1.009667687172
 H   -1.921733730988   -0.208196214325   -3.492667687172
 H   -2.442733730988    1.237803785675   -2.664667687172
 H   -2.290611530988    2.344589485675    0.712312312828
 H   -3.284773730988    1.016314785675   -0.007397687172
 C    2.030266269012   -1.567196214325    2.661332312828
 C    1.720266269012   -0.449196214325    1.684332312828
 O    1.510266269012    0.701803785675    2.087332312828
 N    1.708266269012   -0.768196214325    0.393332312828
 H    1.765266269012   -1.250196214325    3.655332312828
 H    3.101266269012   -1.729196214325    2.633332312828
 H    1.500266269012   -0.050196214325   -0.280667687172
 H    1.855266269012   -1.716196214325    0.091332312828
 H    1.531725269012   -2.520647214325    2.432442312828
