18
0 1 
 C   -1.960983759396    1.325057349711    0.861500814499
 C   -2.891983759396    0.398057349711    0.101500814499
 O   -1.155983759396    0.560057349711    1.742500814499
 H   -1.338983759396    1.882057349711    0.160500814499
 H   -2.551983759396    2.038057349711    1.437500814499
 H   -2.275983759396   -0.323942650289   -0.431499185501
 H   -0.634983759396    1.195057349711    2.258500814499
 H   -3.510130759396    0.973077349711   -0.603659185501
 H   -3.503332759396   -0.158836650289    0.826840814499
 C    1.402016240604   -0.916942650289   -2.126499185501
 C    1.596016240604   -0.600942650289   -0.671499185501
 O    2.516016240604   -1.090942650289   -0.024499185501
 N    0.688016240604    0.177057349711   -0.128499185501
 H    0.693016240604    0.273057349711    0.872500814499
 H   -0.029983759396    0.593057349711   -0.694499185501
 H    2.264016240604   -1.480942650289   -2.485499185501
 H    1.353016240604    0.021057349711   -2.681499185501
 H    0.477486240604   -1.489892650289   -2.290716185501
