27
0 1 
 C    2.840334261044   -2.811632863624    1.582249965331
 C    4.291334261044   -3.263632863624    1.532249965331
 H    2.181334261044   -3.604632863624    1.933249965331
 H    2.751334261044   -1.977632863624    2.273249965331
 H    2.546334261044   -2.481632863624    0.589249965331
 H    4.627334261044   -3.588632863624    2.504249965331
 H    4.885334261044   -2.385632863624    1.289249965331
 H    4.488060261044   -4.049102863624    0.787709965331
 C   -0.522665738956   -1.726632863624   -0.002750034669
 C   -0.692665738956   -2.453632863624   -1.332750034669
 C   -0.721665738956   -0.237632863624   -0.121750034669
 C    0.267334261044    0.561367136376   -0.689750034669
 C   -1.900665738956    0.358367136376    0.319249965331
 C    0.089334261044    1.935367136376   -0.808750034669
 C   -2.086665738956    1.732367136376    0.205249965331
 C   -1.089665738956    2.519367136376   -0.360750034669
 O   -1.270665738956    3.864367136376   -0.474750034669
 H   -1.234665738956   -2.138632863624    0.710249965331
 H    0.472334261044   -1.898632863624    0.391249965331
 H   -0.034665738956   -1.943632863624   -2.037750034669
 H    1.186334261044    0.111367136376   -1.042750034669
 H   -2.680665738956   -0.251632863624    0.756249965331
 H    0.868334261044    2.539367136376   -1.245750034669
 H   -2.997665738956    2.195367136376    0.555249965331
 H   -0.504665738956    4.324367136376   -0.830750034669
 H   -1.735615738956   -2.381602863624   -1.674900034669
 H   -0.300318738956   -3.478942863624   -1.263380034669
