19
0 1 
 C    1.295404749616   -1.846108208723    0.513253981211
 C    1.508404749616   -1.597108208723    2.067253981211
 H    2.062404749616   -2.516108208723    0.127253981211
 H    0.315404749616   -2.293108208723    0.357253981211
 H    1.355404749616   -0.915108208723   -0.041746018789
 H    0.568404749616   -1.240108208723    2.488253981211
 H    2.252144749616   -0.793438208723    2.171954981211
 H    1.777704749616   -2.552728208723    2.540822981211
 C   -0.438595250384    0.953891791277   -0.694746018789
 C   -0.693595250384    2.458891791277   -0.843746018789
 C   -1.687595250384    0.093891791277   -1.085746018789
 H    0.403404749616    0.669891791277   -1.327746018789
 H   -0.198595250384    0.714891791277    0.340253981211
 H   -1.682595250384    2.657891791277   -0.427746018789
 H   -1.940595250384    0.251891791277   -2.130746018789
 H   -1.457595250384   -0.961108208723   -0.935746018789
 H   -2.535595250384    0.360891791277   -0.454746018789
 H    0.025564749616    3.082211791277   -0.292129018789
 H   -0.755235250384    2.778441791277   -1.894502018789
