15
-1 1 
 C    1.553169728160   -2.001328132426   -0.207545558839
 C    0.579169728160   -3.040328132426    0.325454441161
 H    1.048169728160   -1.299328132426   -0.866545558839
 H    1.995169728160   -1.455328132426    0.626454441161
 H    2.350169728160   -2.500328132426   -0.758545558839
 H    1.129169728160   -3.728328132426    0.969454441161
 H    0.118529728160   -3.601828132426   -0.500698558839
 H   -0.191990271840   -2.531358132426    0.922333441161
 C   -0.728830271840    0.989671867574   -1.425545558839
 C   -0.539830271840    1.306671867574    0.050454441161
 O   -0.521830271840    0.342671867574    0.854454441161
 O   -0.389830271840    2.501671867574    0.404454441161
 H   -1.405830271840    0.142671867574   -1.535545558839
 H    0.235169728160    0.684671867574   -1.840545558839
 H   -1.093520271840    1.835321867574   -2.027105558839
