27
0 1 
 C    0.029422971347   -3.032838691299   -0.179009047405
 C    0.153422971347   -0.620838691299    0.477990952595
 C   -0.612577028653   -1.770838691299    0.305990952595
 C   -0.429577028653    0.565161308701    0.912990952595
 C   -1.778577028653    0.622161308701    1.143990952595
 C   -1.974577028653   -1.714838691299    0.566990952595
 C   -2.561577028653   -0.524838691299    1.001990952595
 O   -2.308577028653    1.814161308701    1.550990952595
 H    1.214422971347   -0.675838691299    0.298990952595
 H    0.182422971347    1.445161308701    1.047990952595
 H   -0.555577028653   -3.881838691299    0.174990952595
 H    1.015422971347   -3.110838691299    0.283990952595
 H   -2.585577028653   -2.597838691299    0.439990952595
 H   -1.638577028653    2.502161308701    1.616990952595
 H   -3.617577028653   -0.477838691299    1.220990952595
 H    0.148542971347   -3.112728691299   -1.269618047405
 C    2.947422971347    1.447161308701   -1.192009047405
 C    1.969422971347    2.013161308701   -2.153009047405
 C    3.862422971347    0.544161308701   -2.013009047405
 H    2.421422971347    0.880161308701   -0.432009047405
 H    3.518422971347    2.243161308701   -0.713009047405
 H    1.005422971347    2.206161308701   -1.679009047405
 H    2.370422971347    2.937161308701   -2.573009047405
 H    4.834422971347    1.024161308701   -2.146009047405
 H    1.881542971347    1.263661308701   -2.953343047405
 H    3.352902971347    0.439241308701   -2.982226047405
 H    3.977532971347   -0.437878691299   -1.530983047405
