28
1 1 
 C   -1.055146648066   -1.727470204548   -0.006178092653
 C   -1.670146648066   -2.749470204548   -0.952178092653
 C   -1.867146648066   -0.457470204548    0.045821907347
 O   -2.502146648066   -0.064470204548   -0.927178092653
 N   -1.850146648066    0.205529795452    1.184821907347
 H   -0.992146648066   -2.164470204548    0.991821907347
 H   -0.051146648066   -1.476470204548   -0.336178092653
 H   -1.774146648066   -2.316470204548   -1.948178092653
 H   -2.666146648066   -3.000470204548   -0.584178092653
 H   -2.377146648066    1.064529795452    1.248821907347
 H   -1.345146648066   -0.143470204548    1.984821907347
 H   -1.075246648066   -3.671630204548   -1.027808092653
 C    0.893853351934    1.423529795452   -1.080178092653
 C   -0.029146648066    2.614529795452   -1.269178092653
 C    2.013853351934    0.186529795452    0.716821907347
 N    1.249853351934    1.187529795452    0.313821907347
 N    2.534853351934   -0.669470204548   -0.135178092653
 N    2.234853351934    0.036529795452    1.998821907347
 H    0.386853351934    0.542529795452   -1.473178092653
 H    1.800853351934    1.586529795452   -1.663178092653
 H    0.471853351934    3.499529795452   -0.881178092653
 H   -0.954146648066    2.460529795452   -0.712178092653
 H    0.855853351934    1.804529795452    1.028821907347
 H    2.477853351934   -0.494470204548   -1.142178092653
 H    3.073853351934   -1.469470204548    0.173821907347
 H    1.810853351934    0.687529795452    2.644821907347
 H    2.802853351934   -0.725470204548    2.335821907347
 H   -0.259086648066    2.730229795452   -2.338638092653
