27
0 1 
 C   -0.296779752932    0.992004304200    3.033234809301
 C    1.653220247068    0.270004304200   -0.159765190699
 C    1.055220247068    0.944004304200    0.894234809301
 C    1.510220247068   -1.092995695800   -0.219765190699
 C    0.278220247068    0.257004304200    1.841234809301
 C    0.716220247068   -1.789995695800    0.701234809301
 C    0.104220247068   -1.115995695800    1.708234809301
 O    2.098220247068   -1.743995695800   -1.217765190699
 H    2.241220247068    0.804004304200   -0.891765190699
 H    1.198220247068    2.012004304200    0.992234809301
 H    2.242220247068   -1.157995695800   -1.997765190699
 H    0.555220247068   -2.849995695800    0.570234809301
 H   -1.120779752932    0.432004304200    3.479234809301
 H   -0.658779752932    1.971004304200    2.714234809301
 H   -0.664779752932   -1.603995695800    2.263234809301
 H    0.522370247068    1.112694304200    3.757404809301
 C   -1.765779752932    0.785004304200   -1.773765190699
 C   -2.098779752932    1.057004304200   -3.240765190699
 C   -2.797779752932    1.253004304200   -0.773765190699
 H   -1.659779752932   -0.294995695800   -1.648765190699
 H   -0.796779752932    1.225004304200   -1.528765190699
 H   -2.105779752932    2.138004304200   -3.407765190699
 H   -3.799779752932    0.929004304200   -1.052765190699
 H   -2.551779752932    0.799004304200    0.187234809301
 H   -3.078929752932    0.633054304200   -3.504505190699
 H   -1.316029752932    0.619654304200   -3.877965190699
 H   -2.757729752932    2.346764304200   -0.663805190699
