22
0 1 
 C    0.988620538459    0.993822514668   -1.681890623950
 C    0.753620538459   -0.273177485332   -2.505890623950
 C    2.312620538459    1.045822514668   -0.931890623950
 H    0.926620538459    1.856822514668   -2.348890623950
 H    0.186620538459    1.099822514668   -0.953890623950
 H    0.954620538459   -1.134177485332   -1.875890623950
 H    2.348620538459    0.206822514668   -0.235890623950
 H    3.138620538459    0.959822514668   -1.638890623950
 H    1.430170538459   -0.305497485332   -3.372627623950
 H   -0.300939461541   -0.299167485332   -2.817710623950
 H    2.396760538459    1.997962514668   -0.387504623950
 C   -0.943379461541   -0.380177485332    1.357109376050
 C   -1.875379461541    0.512822514668    2.177109376050
 C   -1.235379461541   -1.862177485332    1.539109376050
 H   -1.064379461541   -0.132177485332    0.310109376050
 H    0.089620538459   -0.184177485332    1.646109376050
 H   -1.785379461541    0.238822514668    3.230109376050
 H   -1.046379461541   -2.031177485332    2.603109376050
 H   -2.262379461541   -2.163177485332    1.478109376050
 H   -2.916309461541    0.389782514668    1.843467376050
 H   -1.576579461541    1.566562514668    2.075344376050
 H   -0.527919461541   -2.506647485332    0.996744376050
