22
1 1 
 C    1.576238568751   -0.801297334310   -2.379256487424
 C    0.260238568751   -0.088297334310   -2.666256487424
 O   -0.165761431249    0.076702665690   -3.795256487424
 N   -0.472761431249    0.350702665690   -1.673256487424
 H   -1.338761431249    0.818702665690   -1.914256487424
 H   -0.170761431249    0.194702665690   -0.734256487424
 H    2.264238568751   -0.083297334310   -1.931256487424
 H    2.001238568751   -1.162297334310   -3.314256487424
 H    1.418868568751   -1.646087334310   -1.692546487424
 C    0.813238568751    1.642702665690    1.321743512576
 C   -0.457761431249   -0.291297334310    2.262743512576
 N   -1.045761431249   -0.604297334310    1.109743512576
 N    0.403238568751    0.733702665690    2.401743512576
 N   -0.768761431249   -1.032297334310    3.309743512576
 H   -1.477761431249    0.185702665690    0.648743512576
 H   -1.599761431249   -1.448297334310    1.075743512576
 H    0.750238568751    0.925702665690    3.336743512576
 H   -0.401761431249   -0.777297334310    4.216743512576
 H   -1.473761431249   -1.750297334310    3.254743512576
 H    0.448238568751    2.643702665690    1.564743512576
 H    0.381238568751    1.367702665690    0.370743512576
 H    1.907628568751    1.687642665690    1.220273512576
