19
0 1 
 C   -0.508971289485   -0.548586291649   -0.955630167412
 C    0.072028710515   -1.797586291649   -1.593630167412
 C   -1.999971289485   -0.356586291649   -1.296630167412
 H   -0.422971289485   -0.641586291649    0.126369832588
 H    0.052028710515    0.330413708351   -1.268630167412
 H    0.082028710515   -1.685586291649   -2.679630167412
 H   -0.590971289485   -2.630586291649   -1.347630167412
 H   -2.552971289485   -1.201586291649   -0.881630167412
 H   -2.371971289485    0.530413708351   -0.782630167412
 H    1.083398710515   -2.034196291649   -1.231500167412
 H   -2.213881289485   -0.306874291649   -2.374480167412
 C    0.673028710515    1.825413708351    1.659369832588
 C    1.736028710515    0.848413708351    2.114369832588
 H    0.482028710515    2.564413708351    2.438369832588
 H    1.023028710515    2.342413708351    0.765369832588
 H   -0.249971289485    1.309413708351    1.406369832588
 H    1.825028710515    0.062413708351    1.365369832588
 H    1.460418710515    0.396502708351    3.078639832588
 H    2.726458710515    1.308912708351    2.244729832588
