27
1 1 
 C   -3.231308853480    1.940766862734   -0.764067858583
 C    0.469691146520    1.057766862734   -0.978067858583
 C   -0.845308853480    1.333766862734   -1.339067858583
 C    0.839691146520    1.083766862734    0.361932141417
 C   -1.802308853480    1.635766862734   -0.371067858583
 C   -0.104308853480    1.384766862734    1.337932141417
 C   -1.417308853480    1.660766862734    0.967932141417
 O    2.125691146520    0.813766862734    0.721932141417
 H    1.201691146520    0.826766862734   -1.741067858583
 H   -1.128308853480    1.310766862734   -2.385067858583
 H    2.694691146520    0.673766862734   -0.044067858583
 H    0.189691146520    1.407766862734    2.377932141417
 H   -3.232308853480    2.449766862734   -1.729067858583
 H   -3.638308853480    2.637766862734   -0.036067858583
 H   -2.145308853480    1.908766862734    1.727932141417
 H   -3.880482853480    1.055596862734   -0.835077858583
 C    0.918691146520   -2.610233137266    0.021932141417
 C    0.221691146520   -3.593233137266    0.953932141417
 N    1.933691146520   -3.290233137266   -0.827067858583
 H    0.161691146520   -2.130233137266   -0.608067858583
 H    1.394691146520   -1.831233137266    0.626932141417
 H    0.958691146520   -4.050233137266    1.616932141417
 H   -0.244308853480   -4.369233137266    0.345932141417
 H    1.512691146520   -4.008233137266   -1.404067858583
 H    2.391691146520   -2.634233137266   -1.448067858583
 H    2.653691146520   -3.727233137266   -0.265067858583
 H   -0.545750853480   -3.083773137266    1.555172141417
