20
0 1 
 C    1.541191559854   -2.476275555153   -2.925320078577
 C    0.586191559854   -1.610275555153   -2.089320078577
 O    0.956191559854   -1.303275555153   -0.925320078577
 O   -0.524808440146   -1.224275555153   -2.567320078577
 H    2.390191559854   -2.775275555153   -2.311320078577
 H    1.906191559854   -1.892275555153   -3.772320078577
 H    1.064768559854   -3.390575555153   -3.308890078577
 C   -0.871808440146    2.963724444847    2.753679921423
 C   -0.419808440146    0.904724444847    1.439679921423
 N   -0.704808440146   -0.360275555153    1.221679921423
 N   -1.035808440146    1.543724444847    2.418679921423
 N    0.449191559854    1.542724444847    0.682679921423
 H   -1.403808440146   -0.833275555153    1.782679921423
 H   -0.238808440146   -0.865275555153    0.469679921423
 H   -1.662808440146    1.013724444847    3.012679921423
 H    0.636191559854    2.520724444847    0.846679921423
 H    0.922191559854    1.054724444847   -0.063320078577
 H   -1.264808440146    3.565724444847    1.932679921423
 H    0.188191559854    3.173724444847    2.878679921423
 H   -1.391665440146    3.260624444847    3.676519921423
