18
-1 1 
 C    0.273259582281   -2.064737666280    1.129885602064
 C    0.783259582281   -0.676737666280    1.507885602064
 O    2.011259582281   -0.426737666280    1.512885602064
 O   -0.100740417719    0.177262333720    1.783885602064
 H   -0.509740417719   -1.980737666280    0.372885602064
 H   -0.185740417719   -2.504737666280    2.017885602064
 H    1.050259582281   -2.758697666280    0.776765602064
 C   -0.822740417719    0.538262333720   -1.701114397936
 C    0.155259582281    1.518262333720   -2.308114397936
 C   -2.290740417719    0.919262333720   -1.936114397936
 H   -0.634740417719   -0.449737666280   -2.119114397936
 H   -0.646740417719    0.497262333720   -0.631114397936
 H   -0.080740417719    2.517262333720   -1.941114397936
 H    0.051259582281    1.507262333720   -3.393114397936
 H   -2.504740417719    1.839262333720   -1.380114397936
 H   -2.446740417719    1.116262333720   -3.003114397936
 H    1.192659582281    1.269712333720   -2.039734397936
 H   -2.963080417719    0.116332333720   -1.599574397936
