28
-1 1 
 C    0.928622710171   -1.417780826910    0.548934580670
 C    1.292622710171   -2.445780826910    1.610934580670
 C    1.431622710171   -0.066780826910    0.877934580670
 C    2.763622710171    0.256219173090    0.664934580670
 C    0.578622710171    0.856219173090    1.448934580670
 C    3.238622710171    1.525219173090    1.021934580670
 C    1.038622710171    2.098219173090    1.800934580670
 C    2.359622710171    2.442219173090    1.601934580670
 H    1.333622710171   -1.718780826910   -0.413065419330
 H   -0.156377289829   -1.392780826910    0.449934580670
 H    2.373622710171   -2.416780826910    1.753934580670
 H    3.436622710171   -0.467780826910    0.226934580670
 H   -0.456377289829    0.604219173090    1.631934580670
 H    4.275622710171    1.788219173090    0.861934580670
 H    0.361622710171    2.815219173090    2.243934580670
 H    2.712622710171    3.424219173090    1.888934580670
 H    1.012926710171   -3.458920826910    1.286394580670
 H    0.825086710171   -2.183610826910    2.571494580670
 C   -1.488377289829   -0.004780826910   -1.725065419330
 C   -1.846377289829    1.200219173090   -2.591065419330
 C   -2.657377289829   -0.966780826910   -1.540065419330
 O   -3.840377289829   -0.569780826910   -1.720065419330
 O   -2.398377289829   -2.121780826910   -1.151065419330
 H   -0.630377289829   -0.526780826910   -2.154065419330
 H   -1.204377289829    0.365219173090   -0.740065419330
 H   -2.782377289829    1.624219173090   -2.225065419330
 H   -1.973504289829    0.886189173090   -3.637595419330
 H   -1.081179289829    1.981939173090   -2.475385419330
