23
0 1 
 C    2.723304994032   -1.094119178693   -1.096285587967
 C    1.303304994032   -0.674119178693   -1.375285587967
 O    1.043304994032    0.446880821307   -1.797285587967
 N    0.375304994032   -1.593119178693   -1.201285587967
 H    3.041304994032   -1.777119178693   -1.881285587967
 H    2.748304994032   -1.619119178693   -0.140285587967
 H   -0.590695005968   -1.363119178693   -1.372285587967
 H    0.637304994032   -2.520119178693   -0.897285587967
 H    3.406724994032   -0.237339178693   -1.002115587967
 C   -1.072695005968    0.611880821307    1.235714412033
 C   -0.667695005968    1.544880821307    2.402714412033
 C   -1.938695005968   -0.556119178693    1.775714412033
 C   -1.767695005968    1.410880821307    0.115714412033
 H   -0.170695005968    0.203880821307    0.778714412033
 H   -1.544695005968    2.093880821307    2.751714412033
 H   -2.839695005968   -0.161119178693    2.248714412033
 H   -2.220695005968   -1.217119178693    0.957714412033
 H   -1.376695005968   -1.131119178693    2.512714412033
 H   -1.158695005968    2.292880821307   -0.093285587967
 H   -1.787695005968    0.782880821307   -0.777285587967
 H    0.141724994032    2.209600821307    2.066584412033
 H   -0.356925005968    0.959230821307    3.280464412033
 H   -2.791785005968    1.723270821307    0.368024412033
