15
0 1 
 C    0.619557625828    1.102820168581   -2.455605008309
 N   -0.470442374172    0.253820168581   -1.891605008309
 H   -1.103442374172   -0.099179831419   -2.595605008309
 H   -0.067442374172   -0.523179831419   -1.375605008309
 H   -0.996442374172    0.731820168581   -1.162605008309
 H    1.211557625828    0.505820168581   -3.156605008309
 H    1.292557625828    1.385820168581   -1.639605008309
 H    0.318597625828    2.027080168581   -2.970545008309
 C   -0.055442374172   -0.516179831419    2.605394991691
 C   -0.014442374172   -0.340179831419    1.089394991691
 O    1.043557625828   -0.562179831419    0.459394991691
 O   -1.067442374172    0.006820168581    0.515394991691
 H   -0.701442374172   -1.366179831419    2.830394991691
 H   -0.508442374172    0.370820168581    3.051394991691
 H    0.925197625828   -0.680089831419    3.076014991691
