16
0 1 
 C   -0.104103831595    1.850511090802   -0.032494115841
 C    0.392896168405    3.027511090802    0.795505884159
 H   -1.128103831595    2.016511090802   -0.362494115841
 H    0.526896168405    1.748511090802   -0.914494115841
 H   -0.047103831595    0.926511090802    0.538505884159
 H    0.360896168405    3.928511090802    0.182505884159
 H    1.441896168405    2.848511090802    1.038505884159
 H   -0.155451831595    3.189507090802    1.735224884159
 C    0.377896168405   -1.935488909198   -0.159494115841
 C   -0.674103831595   -2.946488909198   -0.598494115841
 H    1.377896168405   -2.331488909198   -0.337494115841
 H    0.256896168405   -1.014488909198   -0.728494115841
 H    0.260896168405   -1.716488909198    0.902505884159
 H   -1.660103831595   -2.533488909198   -0.381494115841
 H   -0.546743831595   -3.891968909198   -0.050919115841
 H   -0.599576831595   -3.123038909198   -1.681673115841
