23
0 1 
 C    1.110036717204    3.315725164406   -0.509908250583
 C   -0.674963282796   -0.087274835594   -0.494908250583
 C    0.411036717204   -0.963274835594   -0.739908250583
 C   -0.454963282796    1.317725164406   -0.447908250583
 C    0.844036717204    1.840725164406   -0.565908250583
 C    1.696036717204   -0.439274835594   -0.894908250583
 C    1.895036717204    0.952725164406   -0.815908250583
 H   -1.668963282796   -0.489274835594   -0.370908250583
 H    0.251036717204   -2.030274835594   -0.792908250583
 H   -1.289963282796    1.981725164406   -0.272908250583
 H    2.530036717204   -1.104274835594   -1.064908250583
 H    2.152036717204    3.478725164406   -0.240908250583
 H    0.504036717204    3.735725164406    0.289091749417
 H    2.898036717204    1.340725164406   -0.928908250583
 H    0.901276717204    3.867955164406   -1.438058250583
 C   -1.772963282796   -2.311274835594    2.476091749417
 C   -2.505963282796   -3.158274835594    1.419091749417
 H   -1.530963282796   -2.933274835594    3.338091749417
 H   -0.851963282796   -1.904274835594    2.056091749417
 H   -2.403963282796   -1.482274835594    2.796091749417
 H   -2.756963282796   -2.492274835594    0.594091749417
 H   -3.427667282796   -3.599714835594    1.826021749417
 H   -1.822983282796   -3.935974835594    1.046621749417
