23
0 1 
 C   -2.635675659618    1.569255627430    0.012763086329
 C    1.240324340382    0.136255627430   -1.201236913671
 C    1.134324340382    1.169255627430   -0.294236913671
 C    0.097324340382   -0.395744372570   -1.759236913671
 C   -0.118675659618    1.645255627430    0.093763086329
 C   -1.160675659618    0.082255627430   -1.374236913671
 C   -1.278675659618    1.104255627430   -0.449236913671
 H    2.211324340382   -0.253744372570   -1.473236913671
 H    2.029324340382    1.594255627430    0.129763086329
 H    0.200324340382   -1.212744372570   -2.449236913671
 H   -0.181675659618    2.441255627430    0.821763086329
 H   -2.047675659618   -0.360744372570   -1.800236913671
 H   -2.538675659618    1.947255627430    1.032763086329
 H   -3.311675659618    0.713255627430    0.051763086329
 H   -3.084125659618    2.357635627430   -0.609606913671
 C    0.886324340382   -2.523744372570    1.522763086329
 C    1.742324340382   -2.205744372570    2.735763086329
 H    0.637324340382   -1.598744372570    1.004763086329
 H    1.428324340382   -3.173744372570    0.837763086329
 H   -0.040675659618   -3.003744372570    1.832763086329
 H    1.170324340382   -1.574744372570    3.407763086329
 H    1.986603340382   -3.136742372570    3.268273086329
 H    2.649253340382   -1.660152372570    2.436083086329
