16
0 1 
 C    0.599865231956   -1.564744817343    0.645068650461
 C    1.583865231956   -2.232744817343   -0.292931349539
 H    0.444865231956   -2.171744817343    1.532068650461
 H    0.989865231956   -0.597744817343    0.962068650461
 H   -0.357134768044   -1.425744817343    0.149068650461
 H    2.357865231956   -2.706744817343    0.309068650461
 H    1.055695231956   -3.002424817343   -0.874849749539
 H    2.089565231956   -1.500124817343   -0.939104049539
 C   -1.402134768044    1.299255182657    0.165068650461
 C   -0.787134768044    2.504255182657   -0.514931349539
 H   -2.471134768044    1.409255182657    0.275068650461
 H   -1.232134768044    0.432255182657   -0.467931349539
 H   -0.946134768044    1.143255182657    1.143068650461
 H   -1.199134768044    2.578255182657   -1.522931349539
 H    0.282865231956    2.313255182657   -0.603931349539
 H   -0.949094768044    3.456565182657    0.011252650461
