29
1 1 
 C    1.490435959368    1.777344890620    2.479131881355
 C    1.254435959368    1.616344890620    0.030131881355
 N    1.807435959368    1.199344890620    1.165131881355
 N    0.429435959368    2.638344890620    0.012131881355
 N    1.567435959368    0.998344890620   -1.086868118645
 H    2.422435959368    0.398344890620    1.132131881355
 H    0.172435959368    3.101344890620    0.865131881355
 H   -0.097564040632    2.816344890620   -0.847868118645
 H    2.126435959368    0.158344890620   -1.072868118645
 H    0.988435959368    1.196344890620   -1.885868118645
 H    0.429435959368    1.619344890620    2.689131881355
 H    1.689435959368    2.852344890620    2.482131881355
 H    2.065525959368    1.307814890620    3.290801881355
 C   -2.118564040632   -0.531655109380   -2.967868118645
 C   -1.824564040632   -0.102655109380   -0.476868118645
 C   -1.460564040632   -0.810655109380   -1.635868118645
 C   -1.282564040632   -0.404655109380    0.764131881355
 C   -0.510564040632   -1.832655109380   -1.491868118645
 C   -0.330564040632   -1.415655109380    0.876131881355
 C    0.069435959368   -2.130655109380   -0.256868118645
 O    0.192435959368   -1.683655109380    2.099131881355
 H   -2.564564040632    0.683344890620   -0.551868118645
 H   -1.573564040632    0.151344890620    1.642131881355
 H   -3.193564040632   -0.494655109380   -2.794868118645
 H   -1.958564040632   -1.389655109380   -3.608868118645
 H   -0.209564040632   -2.398655109380   -2.364868118645
 H    0.821435959368   -2.900655109380   -0.181868118645
 H    0.941435959368   -2.291655109380    2.070131881355
 H   -1.854321040632    0.379074890620   -3.525308118645
