27
0 1 
 C    1.843933040657    2.534316674939   -0.137030896135
 C    0.116933040657    0.690316674939    0.632969103865
 C    1.430933040657    1.129316674939    0.234969103865
 C    0.195933040657   -0.698683325061    0.900969103865
 C    2.220933040657    0.023316674939    0.270969103865
 C   -1.118066959343    1.333316674939    0.787969103865
 C   -0.903066959343   -1.443683325061    1.302969103865
 C   -2.218066959343    0.587316674939    1.197969103865
 C   -2.108066959343   -0.788683325061    1.447969103865
 N    1.491933040657   -1.070683325061    0.669969103865
 H   -1.208066959343    2.393316674939    0.595969103865
 H    0.982933040657    3.059316674939   -0.550030896135
 H    2.600933040657    2.475316674939   -0.917030896135
 H    3.272933040657    0.017316674939    0.035969103865
 H    1.857933040657   -2.016683325061    0.763969103865
 H   -0.819066959343   -2.506683325061    1.464969103865
 H   -3.177066959343    1.074316674939    1.322969103865
 H   -2.983066959343   -1.345683325061    1.757969103865
 H    2.236653040657    3.111544674939    0.713019103865
 C   -0.536066959343   -0.495683325061   -2.622030896135
 C   -0.608066959343   -1.609683325061   -3.660030896135
 H   -1.356066959343    0.206316674939   -2.752030896135
 H   -0.616066959343   -0.934683325061   -1.633030896135
 H    0.409933040657    0.038316674939   -2.694030896135
 H   -1.611066959343   -2.037683325061   -3.635030896135
 H    0.088933040657   -2.381683325061   -3.353030896135
 H   -0.373166959343   -1.296479325061   -4.688000896135
