30
0 1 
 C   -3.189794993655   -1.100811755152    1.274963307149
 C   -4.239794993655   -1.421811755152    0.208963307149
 C   -3.468794993655   -1.787811755152    2.612963307149
 H   -2.201794993655   -1.392811755152    0.927963307149
 H   -3.181794993655   -0.023811755152    1.438963307149
 H   -5.214794993655   -1.050811755152    0.524963307149
 H   -4.298794993655   -2.500811755152    0.067963307149
 H   -2.814794993655   -1.325811755152    3.358963307149
 H   -4.505794993655   -1.581811755152    2.896963307149
 H   -3.942778993655   -0.940411755152   -0.734456692851
 H   -3.286519993655   -2.872571755152    2.604072307149
 C    3.049205006345    2.698188244848    0.314963307149
 C    0.738205006345   -0.238811755152   -0.062036692851
 C    1.455205006345    0.847188244848   -0.632036692851
 C    2.125205006345    1.525188244848    0.445963307149
 C    1.794205006345    0.845188244848    1.591963307149
 C   -0.014794993655   -1.111811755152   -0.829036692851
 C   -0.071794993655   -0.897811755152   -2.194036692851
 C    0.630205006345    0.159188244848   -2.792036692851
 C    1.392205006345    1.039188244848   -2.024036692851
 N    0.955205006345   -0.201811755152    1.288963307149
 H   -0.518794993655   -1.951811755152   -0.377036692851
 H   -0.651794993655   -1.567811755152   -2.817036692851
 H    0.554205006345   -0.860811755152    1.961963307149
 H    0.570205006345    0.298188244848   -3.864036692851
 H    2.126205006345    1.103188244848    2.588963307149
 H    1.911205006345    1.865188244848   -2.480036692851
 H    2.626205006345    3.555188244848    0.841963307149
 H    3.125205006345    2.958188244848   -0.740036692851
 H    4.057539006345    2.482018244848    0.697757307149
