18
-1 1 
 C    1.348974562324    0.776954723139   -1.614183181807
 C    2.452974562324    1.347954723139   -2.459183181807
 H    1.458974562324   -0.302045276861   -1.517183181807
 H    1.377974562324    1.227954723139   -0.622183181807
 H    0.386974562324    1.000954723139   -2.074183181807
 H    2.315974562324    2.428954723139   -2.496183181807
 H    2.394776562324    0.949294723139   -3.482743181807
 H    3.429001562324    1.138084723139   -1.997313181807
 C   -0.490025437676   -1.460045276861    0.606816818193
 C    0.453974562324   -1.666045276861    1.772816818193
 C   -1.125025437676   -0.067045276861    0.600816818193
 O   -1.103025437676    0.625954723139    1.641816818193
 O   -1.646025437676    0.329954723139   -0.468183181807
 H    0.039974562324   -1.616045276861   -0.331183181807
 H   -1.296025437676   -2.194045276861    0.663816818193
 H   -0.110025437676   -1.594045276861    2.704816818193
 H    1.195974562324   -0.865045276861    1.764816818193
 H    0.991437562324   -2.625805276861    1.774266818193
