23
0 1 
 C    2.972839147371   -1.027156330410    1.378065285254
 C   -1.181160852629   -0.919156330410    0.179065285254
 C   -0.858160852629   -1.001156330410    1.488065285254
 C   -0.161160852629   -0.855156330410   -0.760934714746
 C    0.495839147371   -1.058156330410    1.890065285254
 C    1.169839147371   -0.905156330410   -0.381934714746
 C    1.524839147371   -0.986156330410    0.951065285254
 H   -2.216160852629   -0.894156330410   -0.132934714746
 H   -1.642160852629   -1.050156330410    2.233065285254
 H   -0.418160852629   -0.787156330410   -1.806934714746
 H    0.732839147371   -1.157156330410    2.939065285254
 H    1.936839147371   -0.864156330410   -1.142934714746
 H    3.130839147371   -0.269156330410    2.145065285254
 H    3.585839147371   -0.763156330410    0.521065285254
 H    3.312199147371   -2.001326330410    1.759935285254
 C   -1.999160852629    2.333843669590   -1.682934714746
 C   -1.744160852629    3.580843669590   -2.545934714746
 H   -2.983160852629    1.926843669590   -1.906934714746
 H   -1.244160852629    1.580843669590   -1.903934714746
 H   -1.919160852629    2.593843669590   -0.627934714746
 H   -0.761160852629    3.954843669590   -2.257934714746
 H   -2.460180852629    4.389053669590   -2.335914714746
 H   -1.668420852629    3.311853669590   -3.609844714746
