27
1 1 
 C    1.244253001986   -3.512545859614    0.770057124646
 C    1.523253001986   -2.825545859614   -0.567942875354
 N    1.490253001986   -4.976545859614    0.758057124646
 H    1.898253001986   -3.050545859614    1.516057124646
 H    0.207253001986   -3.306545859614    1.054057124646
 H    2.511253001986   -3.117545859614   -0.914942875354
 H    1.531253001986   -1.748545859614   -0.403942875354
 H    2.454253001986   -5.163545859614    0.490057124646
 H    1.356253001986   -5.376545859614    1.686057124646
 H    0.829253001986   -5.449545859614    0.151057124646
 H    0.768512001986   -3.056285859614   -1.334184875354
 C   -0.517746998014    4.275454140386   -1.420942875354
 C   -0.642746998014    0.397454140386    0.453057124646
 C   -0.840746998014    1.544454140386    1.208057124646
 C   -0.427746998014    0.490454140386   -0.915942875354
 C   -0.832746998014    2.784454140386    0.590057124646
 C   -0.382746998014    1.739454140386   -1.532942875354
 C   -0.577746998014    2.904454140386   -0.779942875354
 O   -0.658746998014   -0.828545859614    1.049057124646
 H   -0.543746998014   -0.750545859614    2.010057124646
 H   -1.014746998014    1.470454140386    2.273057124646
 H   -0.310746998014   -0.404545859614   -1.493942875354
 H   -1.009746998014    3.670454140386    1.184057124646
 H   -0.179746998014    1.785454140386   -2.591942875354
 H    0.502253001986    4.640454140386   -1.300942875354
 H   -1.157746998014    4.951454140386   -0.864942875354
 H   -0.772220998014    4.350934140386   -2.488442875354
