21
1 1 
 C    0.461996993435   -1.551987539702    1.983380697721
 C   -0.492003006565    0.425012460298    0.828380697721
 N   -0.514003006565   -0.868987539702    1.122380697721
 N    0.452996993435    1.207012460298    1.321380697721
 N   -1.409003006565    0.936012460298    0.027380697721
 H   -1.211003006565   -1.441987539702    0.643380697721
 H    1.141996993435    0.826012460298    1.946380697721
 H    0.465996993435    2.191012460298    1.104380697721
 H   -2.111003006565    0.310012460298   -0.375619302279
 H   -1.426003006565    1.919012460298   -0.183619302279
 H    0.006996993435   -2.454987539702    2.392380697721
 H    0.717996993435   -0.924987539702    2.839380697721
 H    1.382236993435   -1.812554539702    1.439990697721
 C    1.311996993435    0.271012460298   -2.269619302279
 C    0.150996993435   -0.465987539702   -2.938619302279
 H    1.992996993435    0.649012460298   -3.031619302279
 H    0.934996993435    1.112012460298   -1.690619302279
 H    1.854996993435   -0.403987539702   -1.610619302279
 H   -0.532003006565   -0.796987539702   -2.158619302279
 H    0.532246993435   -1.337407539702   -3.491139302279
 H   -0.387973006565    0.204137460298   -3.624509302279
