33
0 1 
 C   -3.411875438634    3.222492820201    3.069043433294
 C   -0.262875438634    1.241492820201    0.890043433294
 C   -1.359875438634    1.756492820201    0.204043433294
 C   -0.169875438634    1.379492820201    2.271043433294
 C   -2.374875438634    2.408492820201    0.909043433294
 C   -1.177875438634    2.033492820201    2.973043433294
 C   -2.291875438634    2.552492820201    2.298043433294
 H    0.505124561366    0.727492820201    0.344043433294
 H   -1.410875438634    1.655492820201   -0.866956566706
 H    0.684124561366    0.970492820201    2.788043433294
 H   -3.231875438634    2.793492820201    0.376043433294
 H   -1.089875438634    2.136492820201    4.046043433294
 H   -3.972875438634    3.862492820201    2.387043433294
 H   -2.980875438634    3.865492820201    3.838043433294
 H   -4.105385438634    2.503112820201    3.528983433294
 C    2.555124561366   -0.763507179799   -0.270956566706
 C    4.009124561366   -1.206507179799   -0.447956566706
 C    1.589124561366   -1.473507179799   -1.174956566706
 C    1.159124561366   -2.774507179799   -0.888956566706
 C    1.115124561366   -0.838507179799   -2.323956566706
 C    0.260124561366   -3.431507179799   -1.747956566706
 C    0.222124561366   -1.494507179799   -3.178956566706
 C   -0.202875438634   -2.787507179799   -2.882956566706
 H    2.254124561366   -0.940507179799    0.762043433294
 H    2.500124561366    0.309492820201   -0.453956566706
 H    4.075124561366   -2.278507179799   -0.262956566706
 H    1.513124561366   -3.277507179799    0.000043433294
 H    1.440124561366    0.164492820201   -2.564956566706
 H   -0.078875438634   -4.431507179799   -1.515956566706
 H   -0.129875438634   -0.999507179799   -4.071956566706
 H   -0.895875438634   -3.292507179799   -3.539956566706
 H    4.635634561366   -0.666797179799    0.277443433294
 H    4.362584561366   -1.010777179799   -1.471066566706
