26
0 1 
 C   -2.003707505798   -0.414809836253    1.431594729974
 C   -3.295707505798   -0.511809836253    0.612594729974
 C   -2.228707505798   -0.565809836253    2.935594729974
 H   -1.306707505798   -1.183809836253    1.092594729974
 H   -1.547707505798    0.560190163747    1.249594729974
 H   -4.029707505798    0.176190163747    1.030594729974
 H   -2.583707505798   -1.574809836253    3.141594729974
 H   -3.727629505798   -1.523139836253    0.638178729974
 H   -3.134186505798   -0.128649836253   -0.405786270026
 H   -1.292577505798   -0.421119836253    3.494813729974
 H   -2.991547505798    0.140280163747    3.295465729974
 C    0.839292494202    2.024190163747   -2.442405270026
 C    1.474292494202    0.219190163747    0.851594729974
 C    1.258292494202    1.228190163747   -0.078405270026
 C    1.485292494202   -1.112809836253    0.444594729974
 C    1.075292494202    0.925190163747   -1.427405270026
 C    1.289292494202   -1.428809836253   -0.894405270026
 C    1.082292494202   -0.412809836253   -1.823405270026
 H    1.621292494202    0.466190163747    1.894594729974
 H    1.220292494202    2.252190163747    0.251594729974
 H    1.649292494202   -1.898809836253    1.169594729974
 H    1.294292494202   -2.461809836253   -1.215405270026
 H   -0.138707505798    2.454190163747   -2.255405270026
 H    0.811292494202    1.587190163747   -3.442405270026
 H    0.937292494202   -0.667809836253   -2.864405270026
 H    1.598552494202    2.820050163747   -2.430923270026
