23
0 1 
 C    0.459197859259   -0.453785764856   -3.044253213012
 C   -1.181802140741   -0.594785764856    0.471746786988
 C   -0.985802140741   -0.341785764856   -0.912253213012
 C   -0.193802140741   -1.288785764856    1.198746786988
 C    0.176197859259   -0.774785764856   -1.569253213012
 C    0.965197859259   -1.723785764856    0.548746786988
 C    1.138197859259   -1.469785764856   -0.825253213012
 H   -2.080802140741   -0.256785764856    0.976746786988
 H   -1.733802140741    0.195214235144   -1.480253213012
 H   -0.323802140741   -1.486785764856    2.254746786988
 H    1.727197859259   -2.249785764856    1.103746786988
 H    1.276197859259   -1.102785764856   -3.366253213012
 H    0.806197859259    0.581214235144   -3.084253213012
 H    2.032197859259   -1.813785764856   -1.329253213012
 H   -0.379272140741   -0.623285764856   -3.735793213012
 C    0.300197859259    2.304214235144    2.076746786988
 C   -0.693802140741    3.458214235144    1.803746786988
 H    1.186197859259    2.687214235144    2.587746786988
 H   -0.171802140741    1.547214235144    2.702746786988
 H    0.604197859259    1.848214235144    1.131746786988
 H   -0.967802140741    3.927214235144    2.748746786988
 H   -0.181302140741    4.201614235144    1.175456786988
 H   -1.600482140741    3.083714235144    1.306056786988
