21
1 1 
 C   -1.889154173826   -1.763839457160   -0.580363876142
 C   -2.584154173826   -1.314839457160   -1.864363876142
 H   -2.063154173826   -2.824839457160   -0.398363876142
 H   -0.815154173826   -1.604839457160   -0.676363876142
 H   -2.253154173826   -1.182839457160    0.269636123858
 H   -2.271154173826   -0.295839457160   -2.093363876142
 H   -3.676944173826   -1.321929457160   -1.738844876142
 H   -2.278504173826   -1.970129457160   -2.693320876142
 C   -0.457154173826    1.909160542840    1.133636123858
 C    1.239845826174    0.311160542840    0.328636123858
 N    0.341845826174    1.254160542840    0.091636123858
 N    1.461845826174   -0.092839457160    1.563636123858
 N    1.911845826174   -0.229839457160   -0.665363876142
 H    0.182845826174    1.516160542840   -0.875363876142
 H    1.000845826174    0.378160542840    2.323636123858
 H    2.071845826174   -0.879839457160    1.732636123858
 H    1.815845826174    0.130160542840   -1.604363876142
 H    2.581845826174   -0.964839457160   -0.497363876142
 H    0.197845826174    2.505160542840    1.744636123858
 H   -0.993154173826    1.168160542840    1.732636123858
 H   -1.181294173826    2.625280542840    0.717964123858
