24
0 1 
 C    1.031927704231   -0.672236885439   -3.186916185055
 C    1.589927704231   -1.564236885439   -2.076916185055
 H    1.377927704231   -1.026236885439   -4.158916185055
 H   -0.055072295769   -0.706236885439   -3.165916185055
 H    1.344927704231    0.359763114561   -3.035916185055
 H    1.314927704231   -1.126236885439   -1.117916185055
 H    2.686999104231   -1.605716885439   -2.145576185055
 H    1.163081904231   -2.577188885439   -2.118526185055
 C    1.316927704231    0.681763114561    3.114083814945
 C   -1.154072295769    0.152763114561   -0.385916185055
 C   -0.986072295769   -0.896236885439    0.518083814945
 C   -0.506072295769    1.368763114561   -0.168916185055
 C   -0.187072295769   -0.718236885439    1.647083814945
 C    0.293927704231    1.534763114561    0.968083814945
 C    0.472927704231    0.489763114561    1.877083814945
 O   -1.946072295769   -0.025236885439   -1.481916185055
 H   -1.457072295769   -1.849236885439    0.337083814945
 H   -2.377072295769   -0.886236885439   -1.483916185055
 H   -0.633072295769    2.177763114561   -0.873916185055
 H   -0.086072295769   -1.533236885439    2.350083814945
 H    0.787927704231    2.481763114561    1.132083814945
 H    0.810927704231    0.179763114561    3.935083814945
 H    1.371927704231    1.737763114561    3.361083814945
 H    2.341551004231    0.286736114561    3.050043814945
