27
0 1 
 C   -0.616251965526   -1.941647632194    2.533619463573
 C   -0.483251965526   -0.293647632194    0.637619463573
 C   -0.747251965526   -1.588647632194    1.074619463573
 C   -0.612251965526    0.042352367806   -0.704380536427
 C   -1.138251965526   -2.546647632194    0.139619463573
 C   -1.010251965526   -0.913647632194   -1.624380536427
 C   -1.278251965526   -2.214647632194   -1.204380536427
 O   -1.119251965526   -0.562647632194   -2.938380536427
 H   -0.183251965526    0.459352367806    1.351619463573
 H   -0.403251965526    1.043352367806   -1.044380536427
 H    0.122748034474   -1.286647632194    2.995619463573
 H   -0.242251965526   -2.962647632194    2.611619463573
 H   -1.347251965526   -3.556647632194    0.463619463573
 H   -1.589251965526   -2.963647632194   -1.918380536427
 H   -1.404251965526   -1.303647632194   -3.481380536427
 H   -1.568377965526   -1.868795632194    3.079649463573
 C    1.952748034474    2.557352367806    0.844619463573
 C    1.255748034474    3.565352367806   -0.083380536427
 C    3.262748034474    3.048352367806    1.469619463573
 H    1.277748034474    2.268352367806    1.648619463573
 H    2.160748034474    1.656352367806    0.269619463573
 H    0.349748034474    3.095352367806   -0.466380536427
 H    3.080748034474    3.895352367806    2.127619463573
 H    3.688748034474    2.241352367806    2.064619463573
 H    3.986748034474    3.318352367806    0.701619463573
 H    0.971647034474    4.475768367806    0.464734163573
 H    1.891133234474    3.817190367806   -0.945275536427
