19
0 1 
 C   -1.908993541335   -0.458069096774   -1.307825357003
 C   -3.420993541335   -0.257069096774   -1.051825357003
 H   -1.756993541335   -0.968069096774   -2.257825357003
 H   -1.419993541335    0.512930903226   -1.345825357003
 H   -1.453993541335   -1.040069096774   -0.506825357003
 H   -3.825993541335    0.352930903226   -1.858825357003
 H   -3.953223541335   -1.219209096774   -1.019845357003
 H   -3.589703541335    0.318390903226   -0.129665357003
 C    1.267006458665    0.175930903226    0.768174642997
 C    2.257006458665   -1.006069096774    0.751174642997
 C    1.899006458665    1.550930903226    0.889174642997
 H    0.685006458665    0.149930903226   -0.152825357003
 H    0.580006458665    0.035930903226    1.599174642997
 H    2.945006458665   -0.897069096774   -0.085825357003
 H    2.497006458665    1.576930903226    1.798174642997
 H    1.672886458665   -1.931999096774    0.644074642997
 H    2.819266458665   -1.061499096774    1.694994642997
 H    2.566806458665    1.776920903226    0.044794642997
 H    1.126196458665    2.326620903226    0.994324642997
