19
-1 1 
 C    3.223871769670    1.408506659512   -2.199578081023
 C    1.714871769670    0.326506659512    0.925421918977
 C    0.983871769670    0.655506659512   -1.119578081023
 C    2.309871769670    0.947506659512   -1.100578081023
 N    0.635871769670    0.271506659512    0.154421918977
 N    2.746871769670    0.734506659512    0.193421918977
 H   -0.276128230330   -0.063493340488    0.474421918977
 H    1.745871769670    0.063506659512    1.978421918977
 H    0.342871769670    0.667506659512   -1.971578081023
 H    4.209871769670    0.987506659512   -2.012578081023
 H    3.284871769670    2.493506659512   -2.144578081023
 H    2.897088769670    1.119956659512   -3.209508081023
 C   -2.726128230330   -1.692493340488   -0.518578081023
 C   -2.684128230330   -0.974493340488    0.819421918977
 O   -1.588128230330   -0.871493340488    1.413421918977
 O   -3.746128230330   -0.493493340488    1.272421918977
 H   -2.464128230330   -2.742493340488   -0.397578081023
 H   -1.974128230330   -1.224493340488   -1.154578081023
 H   -3.712510230330   -1.606033340488   -0.997718081023
