23
-1 1 
 C   -0.903511730411   -3.428977525004    2.030422367213
 C    0.192488269589   -0.430977525004   -0.075577632787
 C   -0.409511730411   -1.196977525004    0.925422367213
 C    0.955488269589   -1.049977525004   -1.062577632787
 C   -0.261511730411   -2.584977525004    0.944422367213
 C    1.113488269589   -2.426977525004   -1.046577632787
 C    0.506488269589   -3.185977525004   -0.051577632787
 O    1.558488269589   -0.326977525004   -2.053577632787
 H    0.084488269589    0.640022474996   -0.073577632787
 H   -0.988511730411   -0.706977525004    1.698422367213
 H    1.398488269589    0.618022474996   -1.951577632787
 H    1.705488269589   -2.904977525004   -1.814577632787
 H   -0.625511730411   -3.019977525004    3.003422367213
 H   -0.497511730411   -4.439977525004    1.974422367213
 H    0.630488269589   -4.261977525004   -0.058577632787
 H   -2.000458730411   -3.487957525004    1.973597367213
 C    0.625488269589    3.901022474996    0.051422367213
 C   -0.737511730411    3.265022474996    0.144422367213
 O   -1.390511730411    3.398022474996    1.202422367213
 O   -1.144511730411    2.626022474996   -0.848577632787
 H    1.000488269589    3.845022474996   -0.972577632787
 H    1.318488269589    3.348022474996    0.686422367213
 H    0.596408269589    4.954602474996    0.366260367213
