19
0 1 
 C    0.976735106061    0.723322404478   -0.712183440843
 C    2.201735106061    1.615322404478   -0.851183440843
 C    1.429735106061   -0.521677595522   -1.480183440843
 H    0.088735106061    1.180322404478   -1.148183440843
 H    0.825735106061    0.480322404478    0.339816559157
 H    2.173735106061    2.143322404478   -1.806183440843
 H    2.235735106061    2.323322404478   -0.022183440843
 H    1.279735106061   -0.350677595522   -2.547183440843
 H    0.866735106061   -1.398677595522   -1.163183440843
 H    3.049455106061    0.914514404478   -0.835443340843
 H    2.499635106061   -0.632779595522   -1.250042570843
 C   -1.649264893939   -0.490677595522    1.305816559157
 C   -2.906264893939   -1.273677595522    1.694816559157
 H   -1.026264893939   -0.323677595522    2.183816559157
 H   -1.087264893939   -1.055677595522    0.562816559157
 H   -1.932264893939    0.473322404478    0.880816559157
 H   -3.508264893939   -1.399677595522    0.797816559157
 H   -3.465104893939   -0.708403595522    2.455185559157
 H   -2.627534893939   -2.271997595522    2.063142559157
