23
0 1 
 C   -0.082330866785   -3.680817334504   -0.793042323230
 C   -1.538330866785   -3.856817334504   -1.064042323230
 H    0.369669133215   -3.045817334504   -1.556042323230
 H    0.055669133215   -3.231817334504    0.190957676770
 H    0.428669133215   -4.643817334504   -0.779042323230
 H   -1.937330866785   -4.571817334504   -0.344042323230
 H   -1.706917866785   -4.239904334504   -2.081304323230
 H   -2.057714866785   -2.900019334504   -0.906631323230
 C   -1.196330866785    1.892182665496    2.158957676770
 C    0.821669133215   -0.229817334504   -0.275042323230
 C    1.379669133215    0.736182665496   -1.088042323230
 C   -0.029330866785    0.131182665496    0.762957676770
 C   -0.323330866785    1.477182665496    1.000957676770
 C    1.111669133215    2.072182665496   -0.866042323230
 C    0.254669133215    2.446182665496    0.174957676770
 H    1.083669133215   -1.261817334504   -0.429042323230
 H    2.042669133215    0.453182665496   -1.893042323230
 H   -0.446330866785   -0.633817334504    1.402957676770
 H    1.557669133215    2.829182665496   -1.495042323230
 H   -0.695330866785    2.703182665496    2.687957676770
 H   -1.292330866785    1.059182665496    2.854957676770
 H    0.056669133215    3.491182665496    0.350957676770
 H   -2.197909866785    2.233206565496    1.858054676770
