26
0 1 
 C    1.484851989219    0.359517804711    2.664665175610
 C    2.431851989219    1.561517804711    2.711665175610
 C    0.648851989219    0.190517804711    3.980665175610
 H    0.801851989219    0.475517804711    1.821665175610
 H    2.033851989219   -0.570482195289    2.526665175610
 H    2.945851989219    1.536517804711    3.674665175610
 H    0.033851989219    1.070517804711    4.151665175610
 H   -0.001148010781   -0.679482195289    3.890665175610
 H    1.318851989219    0.043517804711    4.827665175610
 H    3.195141989219    1.469297804711    1.924969175610
 H    1.916831989219    2.530717804711    2.638091175610
 C   -0.332148010781    1.267517804711   -3.317334824390
 C    0.267851989219   -1.168482195289   -0.447334824390
 C    0.506851989219   -0.230482195289   -1.451334824390
 C   -1.030148010781   -1.587482195289   -0.142334824390
 C   -0.575148010781    0.304517804711   -2.179334824390
 C   -2.117148010781   -1.051482195289   -0.847334824390
 C   -1.874148010781   -0.107482195289   -1.869334824390
 H    1.101851989219   -1.580482195289    0.106665175610
 H    1.520851989219    0.071517804711   -1.674334824390
 H   -1.211148010781   -2.331482195289    0.612665175610
 H   -3.126148010781   -1.372482195289   -0.626334824390
 H    0.440851989219    1.948517804711   -3.016334824390
 H   -1.239148010781    1.844517804711   -3.504334824390
 H   -2.712148010781    0.283517804711   -2.430334824390
 H   -0.013118010781    0.759087804711   -4.239135824390
