30
0 1 
 C    0.465391181936   -1.387797651307    2.318095546553
 C    0.285391181936   -2.334797651307    3.554095546553
 C    1.647391181936   -0.413797651307    2.539095546553
 C    0.671391181936   -2.193797651307    1.013095546553
 H   -0.450608818064   -0.806797651307    2.180095546553
 H   -0.390608818064   -3.149797651307    3.300095546553
 H    2.567391181936   -0.974797651307    2.678095546553
 H    1.760391181936    0.240202348693    1.674095546553
 H    1.466391181936    0.194202348693    3.426095546553
 H    0.925391181936   -1.507797651307    0.202095546553
 H    1.492391181936   -2.895797651307    1.153095546553
 H   -0.110218818064   -1.773037651307    4.413115546553
 H    1.209261181936   -2.860357651307    3.837365546553
 H   -0.240238818064   -2.747767651307    0.744675546553
 C   -1.347608818064    2.055202348693    1.282095546553
 C   -0.802608818064    1.359202348693    0.032095546553
 C    0.443391181936    1.685202348693   -0.508904453447
 C   -1.611608818064    0.473202348693   -0.669904453447
 C    0.866391181936    1.164202348693   -1.763904453447
 C   -1.218608818064   -0.057797651307   -1.916904453447
 C    0.001391181936    0.306202348693   -2.484904453447
 O    0.234391181936   -0.103797651307   -3.775904453447
 H   -0.519608818064    2.342202348693    1.929095546553
 H   -1.993608818064    1.361202348693    1.829095546553
 H    1.080391181936    2.345202348693    0.051095546553
 H   -2.565608818064    0.202202348693   -0.237904453447
 H    1.872391181936    1.340202348693   -2.129904453447
 H   -1.865608818064   -0.738797651307   -2.452904453447
 H    1.034391181936    0.264202348693   -4.159904453447
 H   -1.851748818064    3.011012348693    1.076465546553
