16
0 1 
 C    0.899957553478   -1.048596571292   -1.439896087891
 C    0.907957553478    0.441403428708   -1.871896087891
 H    1.132957553478   -1.698596571292   -2.282896087891
 H    1.631957553478   -1.224596571292   -0.652896087891
 H   -0.072042446522   -1.305596571292   -1.036896087891
 H    0.476957553478    1.041403428708   -1.070896087891
 H    0.299617553478    0.580653428708   -2.777726087891
 H    1.936987553478    0.781303428708   -2.060491087891
 C   -0.125042446522    0.216403428708    1.722103912109
 C   -1.677042446522    0.400403428708    1.590103912109
 H    0.138957553478    0.182403428708    2.770103912109
 H    0.161957553478   -0.726596571292    1.265103912109
 H    0.408957553478    1.030403428708    1.235103912109
 H   -2.167042446522   -0.404596571292    2.139103912109
 H   -1.943042446522    0.260403428708    0.541103912109
 H   -2.075642446522    1.368943428708    1.926332912109
