23
0 1 
 C    0.772104694776    3.363761648211    1.493916226766
 C   -0.870895305224   -0.143238351789   -0.320083773234
 C   -1.232895305224    1.104761648211   -0.797083773234
 C    0.033104694776   -0.226238351789    0.714916226766
 C   -0.675895305224    2.266761648211   -0.214083773234
 C    0.538104694776    0.922761648211    1.311916226766
 C    0.184104694776    2.162761648211    0.861916226766
 H   -1.280895305224   -1.038238351789   -0.765083773234
 H   -1.938895305224    1.176761648211   -1.611083773234
 H    0.323104694776   -1.199238351789    1.084916226766
 H   -0.952895305224    3.240761648211   -0.591083773234
 H    1.213104694776    0.832761648211    2.148916226766
 H    0.664104694776    3.292761648211    2.576916226766
 H    0.195104694776    4.229761648211    1.169916226766
 H    1.830744694776    3.516223648211    1.236946226766
 C    0.094104694776   -3.616238351789   -1.210083773234
 C    0.902104694776   -4.880238351789   -1.574083773234
 H   -0.274895305224   -3.687238351789   -0.185083773234
 H    0.716104694776   -2.726238351789   -1.299083773234
 H   -0.750895305224   -3.479238351789   -1.886083773234
 H    1.188104694776   -4.796238351789   -2.625083773234
 H    0.295194694776   -5.790965351789   -1.463473773234
 H    1.821744694776   -4.940929351789   -0.973603773234
