26
0 1 
 C    1.432224581529    2.445506239781   -0.937181204315
 C    0.928224581529    0.559506239781    0.630818795685
 C    1.485224581529    0.999506239781   -0.565181204315
 C    1.001224581529   -0.782493760219    0.993818795685
 C    1.637224581529   -1.687493760219    0.165818795685
 C    2.126224581529    0.092506239781   -1.388181204315
 C    2.198224581529   -1.254493760219   -1.026181204315
 H    0.431224581529    1.262506239781    1.284818795685
 H    0.561224581529   -1.114493760219    1.924818795685
 H    2.260224581529    2.689506239781   -1.594181204315
 H    1.563224581529    3.030506239781   -0.026181204315
 H    1.696224581529   -2.728493760219    0.450818795685
 H    2.569224581529    0.420506239781   -2.318181204315
 H    2.699224581529   -1.955493760219   -1.677181204315
 H    0.489064581529    2.749796239781   -1.414531204315
 C   -2.748775418471   -0.125493760219    0.937818795685
 C   -3.745775418471    1.005506239781    0.696818795685
 C   -3.162775418471   -1.475493760219    0.355818795685
 H   -1.811775418471    0.149506239781    0.455818795685
 H   -2.547775418471   -0.222493760219    2.005818795685
 H   -4.647775418471    0.802506239781    1.275818795685
 H   -3.417775418471   -1.376493760219   -0.699181204315
 H   -2.282775418471   -2.121493760219    0.395818795685
 H   -3.983495418471    1.101046239781   -0.372931204315
 H   -3.311495418471    1.957886239781    1.034998795685
 H   -3.974455418471   -1.990323760219    0.890728795685
