23
0 1 
 C    0.546712698350   -2.558739140421   -1.204359257501
 C    0.403712698350   -0.131739140421   -0.557359257501
 C    0.876712698350   -1.409739140421   -0.288359257501
 C    0.746712698350    0.929260859579    0.273640742499
 C    1.686712698350   -1.606739140421    0.825640742499
 C    1.547712698350    0.724260859579    1.380640742499
 C    2.019712698350   -0.547739140421    1.664640742499
 H   -0.210287301650    0.060260859579   -1.425359257501
 H    0.373712698350    1.918260859579    0.063640742499
 H    1.166712698350   -3.409739140421   -0.916359257501
 H    0.828712698350   -2.293739140421   -2.224359257501
 H    2.064712698350   -2.593739140421    1.050640742499
 H    1.802712698350    1.553260859579    2.026640742499
 H    2.642712698350   -0.718739140421    2.532640742499
 H   -0.505817301650   -2.877929140421   -1.187221257501
 C   -2.803287301650    2.008260859579   -0.360359257501
 C   -3.999287301650    2.228260859579   -1.306359257501
 H   -2.683287301650    0.956260859579   -0.115359257501
 H   -1.890287301650    2.361260859579   -0.835359257501
 H   -2.961287301650    2.561260859579    0.555640742499
 H   -3.809287301650    1.683260859579   -2.228359257501
 H   -4.925807301650    1.842450859579   -0.856127257501
 H   -4.102647301650    3.299460859579   -1.534044257501
