18
0 1 
 C   -0.351799959108    2.322213636986   -2.582892723848
 C   -0.474799959108    0.954213636986   -1.934892723848
 O   -1.417799959108    0.690213636986   -1.194892723848
 N    0.471200040892    0.072213636986   -2.209892723848
 H   -1.234799959108    2.434213636986   -3.205892723848
 H    0.521200040892    2.366213636986   -3.234892723848
 H    0.401200040892   -0.834786363014   -1.775892723848
 H    1.285200040892    0.319213636986   -2.758892723848
 H   -0.288448959108    3.125613636986   -1.834203723848
 C   -0.418799959108    0.280213636986    1.756107276152
 C    1.299200040892   -1.499786363014    2.944107276152
 S    0.373200040892   -1.295786363014    1.421107276152
 H    0.074200040892    0.788213636986    2.584107276152
 H   -0.328799959108    0.930213636986    0.892107276152
 H   -1.470799959108    0.124213636986    1.992107276152
 H    2.059200040892   -0.719786363014    2.972107276152
 H    1.798200040892   -2.469786363014    2.950107276152
 H    0.658220040892   -1.404396363014    3.832957276152
