24
0 1 
 C   -2.355070798864    0.455277359143   -2.781824595935
 C   -3.547070798864    1.380277359143   -2.792824595935
 H   -1.604070798864    0.784277359143   -3.497824595935
 H   -1.911070798864    0.452277359143   -1.786824595935
 H   -2.668070798864   -0.559722640857   -3.024824595935
 H   -4.218070798864    1.075277359143   -1.989824595935
 H   -4.090888798864    1.308533359143   -3.746304595935
 H   -3.221075798864    2.414014359143   -2.605434595935
 C    1.079929201136    0.221277359143    3.655175404065
 C    0.720929201136   -0.460722640857   -0.568824595935
 C    0.360929201136   -1.469722640857    0.295175404065
 C    1.149929201136    0.752277359143   -0.076824595935
 C    0.474929201136   -1.254722640857    1.664175404065
 C    1.272929201136    0.960277359143    1.279175404065
 C    0.939929201136   -0.034722640857    2.172175404065
 O    0.603929201136   -0.650722640857   -1.910824595935
 H    0.278929201136   -1.531722640857   -2.123824595935
 H    0.003929201136   -2.417722640857   -0.081824595935
 H    1.388929201136    1.526277359143   -0.783824595935
 H    0.203929201136   -2.049722640857    2.347175404065
 H    1.639929201136    1.910277359143    1.641175404065
 H    1.440929201136    1.237277359143    3.806175404065
 H    1.847929201136   -0.450722640857    4.040175404065
 H    0.164666401136    0.086084359143    4.250165404065
