22
-1 1 
 C   -2.845986255831    1.520201086851    0.250379764433
 C   -1.917986255831    0.548201086851    0.908379764433
 C   -1.915986255831   -0.808798913149    0.883379764433
 C   -0.162986255831   -0.144798913149    2.039379764433
 N   -0.801986255831    0.946201086851    1.622379764433
 N   -0.818986255831   -1.218798913149    1.611379764433
 H   -3.514986255831    0.973201086851   -0.411620235567
 H   -2.239986255831    2.176201086851   -0.375620235567
 H   -2.641986255831   -1.434798913149    0.379379764433
 H    0.750013744169   -0.157798913149    2.626379764433
 H   -0.534986255831   -2.177798913149    1.780379764433
 H   -3.430546255831    2.138641086851    0.947389764433
 C    0.973013744169    0.687201086851   -1.638620235567
 C    1.686013744169    1.806201086851   -0.890620235567
 C    1.604013744169   -0.703798913149   -1.464620235567
 O    2.675013744169   -0.870798913149   -0.829620235567
 O    1.011013744169   -1.662798913149   -1.997620235567
 H   -0.052986255831    0.645201086851   -1.269620235567
 H    0.918013744169    0.941201086851   -2.698620235567
 H    1.993013744169    1.471201086851    0.101379764433
 H    0.957013744169    2.605201086851   -0.745620235567
 H    2.538323744169    2.234871086851   -1.438170235567
