30
0 1 
 C    2.121236312414   -2.822374841515   -2.192372348427
 C    3.470236312414   -2.252374841515   -2.655372348427
 C    2.127236312414   -4.347374841515   -2.100372348427
 H    1.872236312414   -2.411374841515   -1.213372348427
 H    1.325236312414   -2.535374841515   -2.872372348427
 H    3.828236312414   -2.836374841515   -3.505372348427
 H    2.831236312414   -4.699374841515   -1.349372348427
 H    1.129236312414   -4.683374841515   -1.820372348427
 H    2.385236312414   -4.777374841515   -3.068372348427
 H    3.357746312414   -1.206524841515   -2.977172348427
 H    4.201616312414   -2.343344841515   -1.838792348427
 C   -1.696763687586    1.412625158485    3.613627651573
 C   -0.987763687586    0.815625158485    1.154627651573
 C   -1.288763687586    1.744625158485    2.218627651573
 C   -0.614763687586    1.582625158485    0.022627651573
 C   -1.088763687586    2.990625158485    1.704627651573
 C   -0.646763687586   -1.161374841515   -0.175372348427
 C   -0.308763687586   -0.376374841515   -1.280372348427
 C   -0.981763687586   -0.586374841515    1.042627651573
 C   -0.279763687586    1.004625158485   -1.194372348427
 N   -0.707763687586    2.901625158485    0.388627651573
 H   -0.636763687586   -2.238374841515   -0.273372348427
 H   -0.069763687586   -0.854374841515   -2.219372348427
 H   -1.234763687586   -1.200374841515    1.893627651573
 H   -0.019763687586    1.615625158485   -2.046372348427
 H   -1.291763687586    2.188625158485    4.264627651573
 H   -1.216763687586    0.474625158485    3.894627651573
 H   -1.225763687586    3.915625158485    2.254627651573
 H   -0.537763687586    3.700625158485   -0.210372348427
 H   -2.778103687586    1.334975158485    3.799837651573
