16
0 1 
 C   -1.510968879072   -0.270663249736    1.122303396916
 C   -2.495968879072   -0.776663249736    2.165303396916
 H   -1.586968879072   -0.866663249736    0.216303396916
 H   -1.746968879072    0.754336750264    0.863303396916
 H   -0.492968879072   -0.314663249736    1.510303396916
 H   -2.412968879072   -0.182663249736    3.066303396916
 H   -2.223396879072   -1.813443249736    2.411846396916
 H   -3.530335879072   -0.706593249736    1.797640396916
 C    1.295031120928    0.603336750264   -1.365696603084
 C    2.710031120928    0.448336750264   -1.925696603084
 H    0.916031120928    1.600336750264   -1.594696603084
 H    0.624031120928   -0.133663249736   -1.800696603084
 H    1.282031120928    0.451336750264   -0.286696603084
 H    3.099031120928   -0.507663249736   -1.569696603084
 H    3.371181120928    1.240006750264   -1.543413303084
 H    2.723634120928    0.427576750264   -3.025416503084
