27
0 1 
 C    2.921587379934    0.060214397639   -3.501558165821
 C    2.652587379934   -1.450785602361   -3.438558165821
 H    3.742587379934    0.269214397639   -4.189558165821
 H    2.035587379934    0.597214397639   -3.837558165821
 H    3.184587379934    0.427214397639   -2.514558165821
 H    1.787587379934   -1.602785602361   -2.790558165821
 H    3.508167379934   -1.964705602361   -2.976098165821
 H    2.382187379934   -1.859605602361   -4.423318165821
 C    0.436587379934    1.366214397639   -1.068558165821
 C   -0.578412620066    1.822214397639   -2.122558165821
 C   -0.175412620066    0.639214397639    0.102441834179
 C    0.067587379934   -0.726785602361    0.302441834179
 C   -0.931412620066    1.320214397639    1.046441834179
 C   -0.438412620066   -1.394785602361    1.433441834179
 C   -1.440412620066    0.654214397639    2.149441834179
 C   -1.214412620066   -0.702785602361    2.338441834179
 O   -1.742412620066   -1.328785602361    3.428441834179
 H    1.154587379934    0.706214397639   -1.544558165821
 H    0.979587379934    2.226214397639   -0.681558165821
 H   -1.072412620066    0.941214397639   -2.534558165821
 H    0.675587379934   -1.271785602361   -0.406558165821
 H   -1.076412620066    2.387214397639    0.978441834179
 H   -0.229412620066   -2.444785602361    1.580441834179
 H   -2.016412620066    1.196214397639    2.886441834179
 H   -1.468412620066   -2.248785602361    3.489441834179
 H   -0.064092620066    2.365234397639   -2.929158165821
 H   -1.347332620066    2.467444397639   -1.672628165821
