23
0 1 
 C   -1.311432499898    1.262245992638   -3.029603942981
 C   -1.175432499898    2.300245992638   -4.123603942981
 H   -2.349432499898    0.993245992638   -2.859603942981
 H   -0.740432499898    0.373245992638   -3.290603942981
 H   -0.909432499898    1.661245992638   -2.100603942981
 H   -0.112432499898    2.519245992638   -4.240603942981
 H   -1.681841499898    3.236495992638   -3.846143942981
 H   -1.528208499898    1.882220392638   -5.077963942981
 C    0.730567500102   -2.810754007362    2.152396057019
 C    0.182567500102    1.140245992638    0.447396057019
 C    1.205567500102    0.308245992638    0.028396057019
 C   -0.698432499898    0.651245992638    1.406396057019
 C    1.373567500102   -0.986754007362    0.529396057019
 C   -0.534432499898   -0.631754007362    1.936396057019
 C    0.513567500102   -1.468754007362    1.519396057019
 H    0.079567500102    2.141245992638    0.060396057019
 H    1.919567500102    0.682245992638   -0.689603942981
 H   -1.489432499898    1.284245992638    1.773396057019
 H    2.209567500102   -1.583754007362    0.193396057019
 H   -1.214432499898   -0.973754007362    2.704396057019
 H    0.314567500102   -2.778754007362    3.160396057019
 H    1.804567500102   -2.951754007362    2.257396057019
 H    0.291174500102   -3.677958007362    1.637716057019
