28
0 1 
 C    2.935421096010   -3.496995872884   -1.319418020316
 C    1.307421096010    0.384004127116   -0.382418020316
 C    0.670421096010   -0.445995872884   -1.293418020316
 C    2.468421096010   -0.043995872884    0.258581979684
 C    1.210421096010   -1.685995872884   -1.590418020316
 C    3.000421096010   -1.297995872884   -0.042418020316
 C    2.365421096010   -2.139995872884   -0.961418020316
 O    0.771421096010    1.608004127116   -0.147418020316
 H   -0.141578903990    1.669004127116   -0.428418020316
 H   -0.278578903990   -0.215995872884   -1.730418020316
 H    2.938421096010    0.596004127116    0.989581979684
 H    0.706421096010   -2.315995872884   -2.294418020316
 H    3.884421096010   -1.636995872884    0.476581979684
 H    2.132421096010   -4.231995872884   -1.274418020316
 H    3.689421096010   -3.779995872884   -0.584418020316
 H    3.382009096010   -3.526865872884   -2.324238020316
 C   -1.881578903990    1.770004127116    1.540581979684
 C   -2.718578903990    2.346004127116    2.687581979684
 C   -2.689578903990    0.920004127116    0.575581979684
 O   -2.716578903990   -0.299995872884    0.680581979684
 N   -3.336578903990    1.564004127116   -0.383418020316
 H   -1.464578903990    2.612004127116    0.987581979684
 H   -1.043578903990    1.201004127116    1.926581979684
 H   -3.500578903990    2.986004127116    2.270581979684
 H   -3.890578903990    1.021004127116   -1.030418020316
 H   -3.324578903990    2.573004127116   -0.441418020316
 H   -2.067350903990    2.963394127116    3.323771979684
 H   -3.188294903990    1.544174127116    3.276171979684
