18
0 1 
 C   -0.050727439315    0.880964027398   -3.288672820891
 C   -0.092727439315    1.448964027398    0.308327179109
 C   -0.059727439315   -0.341035972602   -0.971672820891
 C   -0.072727439315    0.756964027398   -1.784672820891
 N   -0.068727439315    0.120964027398    0.327327179109
 N   -0.104727439315    1.856964027398   -0.955672820891
 H   -0.083727439315   -0.457035972602    1.166327179109
 H   -0.098727439315    2.094964027398    1.179327179109
 H   -0.040727439315   -1.374035972602   -1.281672820891
 H    0.827272560685    0.351964027398   -3.654672820891
 H    0.056272560685    1.932964027398   -3.556672820891
 H   -0.943537439315    0.469174027398   -3.781952820891
 C    0.794272560685   -2.335035972602    2.933327179109
 O   -0.365727439315   -1.653035972602    2.500327179109
 H   -1.010727439315   -1.651035972602    3.222327179109
 H    0.887272560685   -2.257035972602    4.018327179109
 H    1.666272560685   -1.856035972602    2.485327179109
 H    0.782702560685   -3.392595972602    2.630959179109
