23
0 1 
 C   -1.867943274440   -1.600232390658    2.408962592524
 C   -0.456943274440   -1.967232390658    2.003962592524
 O    0.148056725560   -1.235232390658    1.189962592524
 O    0.034056725560   -3.017232390658    2.470962592524
 H   -2.225943274440   -0.778232390658    1.784962592524
 H   -1.853943274440   -1.257232390658    3.444962592524
 H   -2.552273274440   -2.457082390658    2.322347292524
 C   -0.497943274440    1.664767609342   -0.115037407476
 C   -1.917943274440    2.028767609342   -0.495037407476
 C    1.132056725560    1.053767609342   -1.857037407476
 N    0.448056725560    1.968767609342   -1.189037407476
 N    0.960056725560   -0.229232390658   -1.596037407476
 N    1.981056725560    1.429767609342   -2.791037407476
 H   -0.217943274440    2.233767609342    0.773962592524
 H   -0.509943274440    0.622767609342    0.146962592524
 H   -1.949943274440    3.075767609342   -0.779037407476
 H   -2.537943274440    1.881767609342    0.388962592524
 H    0.621056725560    2.939767609342   -1.399037407476
 H    0.453056725560   -0.494232390658   -0.759037407476
 H    1.372056725560   -0.956232390658   -2.164037407476
 H    2.160056725560    2.406767609342   -2.958037407476
 H    2.544056725560    0.733767609342   -3.251037407476
 H   -2.314573274440    1.454807609342   -1.345480407476
