21
-1 1 
 C    1.052351809199   -0.757600129361   -2.305859339595
 C    2.342351809199   -0.345600129361   -1.604859339595
 C    0.293351809199    0.388399870639   -2.966859339595
 H    1.310351809199   -1.497600129361   -3.063859339595
 H    0.391351809199   -1.243600129361   -1.589859339595
 H    2.109351809199    0.433399870639   -0.874859339595
 H   -0.026648190801    1.111399870639   -2.215859339595
 H    0.949351809199    0.877399870639   -3.688859339595
 H    3.080281809199    0.035489870639   -2.326129339595
 H    2.762071809199   -1.208840129361   -1.067589339595
 H   -0.576178190801   -0.037730129361   -3.488719339595
 C   -1.143648190801   -0.634600129361    0.740140660405
 C   -2.124648190801   -1.188600129361    1.771140660405
 C   -0.342648190801    0.531399870639    1.291140660405
 O   -1.011648190801    1.494399870639    1.721140660405
 O    0.907351809199    0.464399870639    1.342140660405
 H   -0.466648190801   -1.434600129361    0.441140660405
 H   -1.693648190801   -0.308600129361   -0.144859339595
 H   -2.848648190801   -0.405600129361    2.008140660405
 H   -1.580458190801   -1.482960129361    2.680650660405
 H   -2.673418190801   -2.033480129361    1.329520660405
