16
-1 1 
 C    2.185405628701    0.464478999707   -1.779078759986
 C    1.112405628701    1.472478999707   -1.352078759986
 O    0.647405628701    1.434478999707   -0.191078759986
 O    0.688405628701    2.295478999707   -2.186078759986
 H    2.783405628701    0.894478999707   -2.583078759986
 H    1.701405628701   -0.433521000293   -2.166078759986
 H    2.868885628701    0.170222999707   -0.968978759986
 C    0.141405628701   -1.222521000293    1.987921240014
 C   -1.207594371299   -1.375521000293    1.331921240014
 O   -1.634594371299   -0.539521000293    0.542921240014
 N   -1.893594371299   -2.455521000293    1.637921240014
 H    0.492405628701   -0.207521000293    1.840921240014
 H    0.830405628701   -1.877521000293    1.461921240014
 H   -2.799594371299   -2.567521000293    1.203921240014
 H   -1.520594371299   -3.145521000293    2.259921240014
 H    0.124301928701   -1.478364600293    3.057621240014
