16
0 1 
 C    1.089163928721   -1.109623249352    0.749900213517
 C    1.915163928721   -1.972623249352    1.693900213517
 H    0.099163928721   -0.923623249352    1.166900213517
 H    1.595163928721   -0.154623249352    0.606900213517
 H    0.993163928721   -1.604623249352   -0.216099786483
 H    1.995163928721   -1.448623249352    2.645900213517
 H    2.916163928721   -2.062623249352    1.269900213517
 H    1.505813928721   -2.982023249352    1.847320213517
 C   -1.280836071279    0.907376750648   -0.859099786483
 C   -1.730836071279    2.168376750648   -1.585099786483
 H   -1.371836071279    0.069376750648   -1.538099786483
 H   -0.246836071279    1.012376750648   -0.530099786483
 H   -1.908836071279    0.735376750648    0.016900213517
 H   -1.459836071279    3.023376750648   -0.964099786483
 H   -2.817736071279    2.137366750648   -1.751499786483
 H   -1.212106071279    2.275576750648   -2.549169786483
