19
0 1 
 C    0.590525865699    1.669711991342    0.100366390332
 C    1.355525865699    1.960711991342   -1.175633609668
 C    1.482525865699    0.602711991342    0.744366390332
 H   -0.408474134301    1.294711991342   -0.104633609668
 H    0.533525865699    2.558711991342    0.729366390332
 H    1.211525865699    1.178711991342   -1.921633609668
 H    1.070525865699    2.921711991342   -1.600633609668
 H    1.395525865699   -0.314288008658    0.157366390332
 H    1.293525865699    0.384711991342    1.795366390332
 H    2.392392865699    1.965211991342   -0.808363609668
 H    2.484429865699    1.036411991342    0.609866390332
 C   -1.260474134301   -1.482288008658    0.411366390332
 C   -2.147474134301   -2.638288008658   -0.071633609668
 H   -1.821474134301   -0.851288008658    1.101366390332
 H   -0.384474134301   -1.880288008658    0.923366390332
 H   -0.940474134301   -0.886288008658   -0.443633609668
 H   -2.466474134301   -3.223288008658    0.791366390332
 H   -3.037304134301   -2.243488008658   -0.583783609668
 H   -1.568407134301   -3.281488008658   -0.750543609668
