25
0 1 
 C   -1.059748957430    2.318048387980    1.906604731133
 C   -0.891748957430    2.487048387980    0.405604731133
 O   -1.863748957430    2.645048387980   -0.330395268867
 N    0.347251042570    2.460048387980   -0.061395268867
 H   -1.201748957430    3.301048387980    2.356604731133
 H   -0.141748957430    1.895048387980    2.304604731133
 H    0.494251042570    2.523048387980   -1.056395268867
 H    1.119251042570    2.412048387980    0.581604731133
 H   -1.902598957430    1.658738387980    2.161402731133
 C    0.723251042570   -3.182951612020    2.019604731133
 C   -0.785748957430   -0.885951612020   -0.622395268867
 C   -0.665748957430   -1.766951612020    0.459604731133
 C    0.354251042570   -0.492951612020   -1.323395268867
 C    0.587251042570   -2.254951612020    0.841604731133
 C    1.606251042570   -0.970951612020   -0.946395268867
 C    1.718251042570   -1.847951612020    0.129604731133
 O    0.254251042570    0.361048387980   -2.383395268867
 H   -1.754748957430   -0.507951612020   -0.910395268867
 H   -1.550748957430   -2.065951612020    1.006604731133
 H   -0.660748957430    0.612048387980   -2.552395268867
 H    2.484251042570   -0.645951612020   -1.477395268867
 H    1.610251042570   -3.801951612020    1.895604731133
 H   -0.143748957430   -3.845951612020    2.037604731133
 H    2.693251042570   -2.213951612020    0.415604731133
 H    0.786591042570   -2.653911612020    2.981949731133
