24
0 1 
 C    3.072772553470    0.683539709735   -0.212031340807
 C   -0.698227446530   -0.920460290265    1.141968659193
 C    0.083772553470   -1.657460290265    0.264968659193
 C   -0.290227446530    0.339539709735    1.545968659193
 C    1.305772553470   -1.120460290265   -0.190031340807
 C    0.929772553470    0.857539709735    1.099968659193
 C    1.734772553470    0.141539709735    0.218968659193
 O   -1.900227446530   -1.408460290265    1.593968659193
 H   -0.238227446530   -2.635460290265   -0.062031340807
 H   -2.175227446530   -2.122460290265    1.015968659193
 H   -0.915227446530    0.912539709735    2.213968659193
 H    1.927772553470   -1.695460290265   -0.863031340807
 H    1.217772553470    1.845539709735    1.410968659193
 H    3.056772553470    1.774539709735   -0.179031340807
 H    3.273772553470    0.378539709735   -1.236031340807
 H    3.884642553470    0.301359709735    0.424218659193
 C   -1.313227446530    1.193539709735   -1.926031340807
 C   -2.237227446530    1.731539709735   -3.047031340807
 H   -0.425227446530    1.819539709735   -1.842031340807
 H   -1.845227446530    1.202539709735   -0.976031340807
 H   -1.013227446530    0.170539709735   -2.150031340807
 H   -3.114227446530    1.085539709735   -3.088031340807
 H   -1.706797446530    1.695549709735   -4.010021340807
 H   -2.583667446530    2.750509709735   -2.819701340807
