20
0 1 
 C    3.218973803689   -2.520694767592    0.044642907648
 C    1.245973803689   -1.172694767592    0.674642907648
 N    0.401973803689   -0.759694767592    1.598642907648
 N    2.197973803689   -2.039694767592    0.981642907649
 N    1.139973803689   -0.693694767592   -0.549357092351
 H    0.416973803689   -1.131694767592    2.534642907648
 H   -0.344026196311   -0.136694767592    1.305642907648
 H    2.254973803689   -2.373694767592    1.936642907648
 H    1.663973803689   -1.110694767592   -1.315357092351
 H    0.324973803689   -0.113694767592   -0.734357092352
 H    2.783973803689   -2.714694767592   -0.933357092352
 H    3.614973803689   -3.469694767592    0.406642907648
 H    4.033633803689   -1.787214767592   -0.046597092351
 C   -1.490026196311    2.857305232408   -1.484357092352
 C   -2.074026196311    1.739305232408   -0.631357092351
 O   -1.390026196311    0.710305232408   -0.427357092352
 O   -3.231026196311    1.886305232408   -0.178357092351
 H   -1.681026196311    3.821305232408   -1.015357092352
 H   -2.007026196311    2.847305232408   -2.445357092352
 H   -0.412526196311    2.739015232408   -1.671467092351
