19
0 1 
 C   -0.433891888475    1.307802551436   -0.720917902409
 C   -1.198891888475    2.506802551436   -1.273917902409
 C   -0.009891888475    0.376802551436   -1.825917902409
 H    0.435108111525    1.638802551436   -0.158917902409
 H   -1.077891888475    0.732802551436   -0.053917902409
 H   -1.732891888475    2.180802551436   -2.168917902409
 H    0.744108111525    0.858802551436   -2.446917902409
 H    0.380108111525   -0.537197448564   -1.385917902409
 H   -0.864891888475    0.107802551436   -2.444917902409
 H   -1.975267888475    2.823952551436   -0.562117902409
 H   -0.541151888475    3.334882551436   -1.576664902409
 C    0.558108111525   -1.616197448564    1.303082097591
 C    1.061108111525   -2.478197448564    2.477082097591
 H    0.359108111525   -0.599197448564    1.642082097591
 H    1.325108111525   -1.583197448564    0.530082097591
 H   -0.343891888475   -2.038197448564    0.860082097591
 H    1.151108111525   -3.501197448564    2.126082097591
 H    0.364578111525   -2.440057448564    3.327602097591
 H    2.056088111525   -2.133917448564    2.795652097591
