27
0 1 
 C    2.431553840901    0.465852135239   -2.245860407531
 C    2.848553840901   -0.973147864761   -2.526860407531
 H    2.442553840901    1.049852135239   -3.167860407531
 H    1.424553840901    0.483852135239   -1.824860407531
 H    3.117553840901    0.915852135239   -1.526860407531
 H    2.846553840901   -1.516147864761   -1.580860407531
 H    3.864693840901   -1.003317864761   -2.947044407531
 H    2.123443840901   -1.456797864761   -3.197909407531
 C   -2.722446159099   -1.581147864761   -0.686860407531
 C   -0.696446159099   -0.363147864761    0.392139592469
 C   -2.055446159099   -0.419147864761   -0.055860407531
 C   -0.458446159099    0.950852135239    0.862139592469
 C   -2.566446159099    0.827852135239    0.112139592469
 C    0.338553840901   -1.300147864761    0.465139592469
 C    1.563553840901   -0.912147864761    0.996139592469
 C    1.771553840901    0.397852135239    1.447139592469
 C    0.762553840901    1.341852135239    1.390139592469
 N   -1.620446159099    1.650852135239    0.676139592469
 H    0.149553840901   -2.310147864761    0.148139592469
 H    2.369553840901   -1.631147864761    1.076139592469
 H    2.735553840901    0.671852135239    1.857139592469
 H   -3.798446159099   -1.544147864761   -0.521860407531
 H   -2.329446159099   -2.496147864761   -0.244860407531
 H   -3.578446159099    1.121852135239   -0.146860407531
 H   -1.779446159099    2.622852135239    0.921139592469
 H    0.919553840901    2.352852135239    1.742139592469
 H   -2.484446159099   -1.568887864761   -1.760735407531
