29
0 1 
 C    2.888592346591   -2.258963989015   -0.702994531822
 C    0.081592346591   -0.712963989015    1.269005468178
 C    0.828592346591   -1.578963989015    0.520005468178
 C    0.554592346591    0.523036010985    1.537005468178
 C    2.094592346591   -1.238963989015    0.052005468178
 C    1.807592346591    0.905036010985    1.100005468178
 C    2.598592346591    0.010036010985    0.351005468178
 H   -0.880407653409   -1.021963989015    1.653005468178
 H    0.433592346591   -2.558963989015    0.298005468178
 H   -0.047407653409    1.211036010985    2.113005468178
 H    2.190592346591    1.885036010985    1.353005468178
 H    2.685592346591   -3.243963989015   -0.276994531822
 H    3.949592346591   -2.055963989015   -0.555994531822
 H    3.588592346591    0.299036010985    0.024005468178
 H    2.658512346591   -2.283483989015   -1.778383531822
 C   -2.380407653409    0.845036010985   -0.604994531822
 C   -3.893407653409    0.683036010985   -0.636994531822
 C   -1.750407653409    0.297036010985   -1.873994531822
 C   -1.948407653409    2.292036010985   -0.445994531822
 H   -1.992407653409    0.276036010985    0.225005468178
 H   -4.111407653409   -0.349963989015   -0.909994531822
 H   -4.304407653409    1.327036010985   -1.414994531822
 H   -2.134407653409    0.832036010985   -2.741994531822
 H   -0.665407653409    0.395036010985   -1.818994531822
 H   -1.980407653409   -0.756963989015   -1.988994531822
 H   -2.376407653409    2.719036010985    0.459005468178
 H   -0.861407653409    2.338036010985   -0.363994531822
 H   -2.263407653409    2.875036010985   -1.311994531822
 H   -4.385047653409    0.907296010985    0.321128468178
