16
-1 1 
 C    0.370324515496   -2.066735087438   -1.243430927078
 C    1.503324515496   -1.413735087438   -0.480430927078
 O    2.025324515496   -0.365735087438   -0.931430927078
 O    1.857324515496   -1.955735087438    0.587569072922
 H   -0.539675484504   -1.782735087438   -0.716430927078
 H    0.482324515496   -3.154735087438   -1.222430927078
 H    0.321064515496   -1.727720087438   -2.288730927078
 C   -2.749675484504    2.065264912562    0.530569072922
 C   -1.385675484504    1.410264912562    0.567569072922
 O   -1.002675484504    0.805264912562    1.564569072922
 N   -0.649675484504    1.512264912562   -0.524430927078
 H    0.242324515496    1.040264912562   -0.553430927078
 H   -0.995675484504    2.031264912562   -1.328430927078
 H   -2.941675484504    2.367264912562   -0.494430927078
 H   -2.765675484504    2.962264912562    1.143569072922
 H   -3.553765484504    1.374293912562    0.823819072922
