23
0 1 
 C   -0.466052567369    1.702263871459    2.430880823138
 C    0.639947432631    2.493263871459    3.126880823138
 H   -0.968052567369    2.320263871459    1.682880823138
 H   -0.032052567369    0.831263871459    1.941880823138
 H   -1.189052567369    1.326263871459    3.152880823138
 H    1.058947432631    1.866263871459    3.912880823138
 H    0.238367432631    3.407513871459    3.588270823138
 H    1.442727432631    2.730643871459    2.413300823138
 C   -1.945052567369    0.183263871459   -2.153119176862
 C    0.221947432631    0.514263871459   -0.917119176862
 C   -0.756052567369   -0.349736128541   -1.397119176862
 C    1.308947432631    0.019263871459   -0.207119176862
 C    1.418947432631   -1.343736128541    0.041880823138
 C   -0.643052567369   -1.711736128541   -1.139119176862
 C    0.440947432631   -2.210736128541   -0.427119176862
 H    0.141947432631    1.576263871459   -1.103119176862
 H    2.081947432631    0.694263871459    0.122880823138
 H   -2.350052567369    1.026263871459   -1.597119176862
 H   -2.710052567369   -0.583736128541   -2.183119176862
 H    2.266947432631   -1.729736128541    0.590880823138
 H   -1.414052567369   -2.371736128541   -1.494119176862
 H    0.522947432631   -3.272736128541   -0.233119176862
 H   -1.716292567369    0.556883871459   -3.162119176862
