23
0 1 
 C    0.575471285271   -1.899755172425   -2.524459189991
 C    0.101471285271    0.685244827575    0.261540810009
 C    0.808471285271    1.771244827575   -0.212459189991
 C    0.050471285271   -0.497755172425   -0.486459189991
 C    0.705471285271   -0.613755172425   -1.712459189991
 C    1.482471285271    1.691244827575   -1.445459189991
 C    1.431471285271    0.487244827575   -2.197459189991
 H   -0.408528714729    0.760244827575    1.210540810009
 H    0.835471285271    2.680244827575    0.371540810009
 H   -0.508528714729   -1.344755172425   -0.112459189991
 H    2.023471285271    2.555244827575   -1.803459189991
 H    0.407471285271   -1.599755172425   -3.556459189991
 H   -0.314528714729   -2.421755172425   -2.165459189991
 H    1.945471285271    0.410244827575   -3.147459189991
 H    1.420631285271   -2.599855172425   -2.449429189991
 C   -1.957528714729   -0.943755172425    3.100540810009
 C   -2.524528714729   -0.247755172425    4.324540810009
 H   -2.000528714729   -0.268755172425    2.247540810009
 H   -0.922528714729   -1.230755172425    3.289540810009
 H   -2.545528714729   -1.834755172425    2.884540810009
 H   -2.478528714729   -0.924755172425    5.176540810009
 H   -3.568688714729    0.041044827575    4.133920810009
 H   -1.901298714729    0.631944827575    4.543030810009
