25
-1 1 
 C   -0.272849116517   -2.746661086662   -0.477060830091
 C    1.122150883483   -2.571661086662   -1.100060830091
 C   -0.340849116517   -2.469661086662    1.008939169909
 O    0.695150883483   -2.180661086662    1.636939169909
 O   -1.473849116517   -2.532661086662    1.560939169909
 H   -0.953849116517   -2.070661086662   -0.989060830091
 H   -0.618849116517   -3.766661086662   -0.661060830091
 H    1.442150883483   -1.540661086662   -0.944060830091
 H    1.063562883483   -2.801508086662   -2.174182830091
 H    1.852086883483   -3.250857086662   -0.635424830091
 C    1.562150883483    2.539338913338   -2.239060830091
 C   -1.078849116517    0.784338913338   -0.178060830091
 C   -0.207849116517    1.102338913338   -1.232060830091
 C   -1.102849116517    1.550338913338    0.960939169909
 C    0.611150883483    2.213338913338   -1.139060830091
 C   -0.281849116517    2.638338913338    1.071939169909
 C    0.574150883483    2.972338913338    0.025939169909
 H   -1.731849116517   -0.071661086662   -0.256060830091
 H   -0.186849116517    0.481338913338   -2.117060830091
 H   -1.758849116517    1.273338913338    1.767939169909
 H   -0.299849116517    3.238338913338    1.968939169909
 H    1.811150883483    3.601338913338   -2.199060830091
 H    1.075150883483    2.345338913338   -3.196060830091
 H    1.220150883483    3.834338913338    0.124939169909
 H    2.484700883483    1.943331913338   -2.178376830091
