24
0 1 
 C   -0.525251733025   -0.724632280321    3.634446364567
 C    0.686748266975    0.116367719679    4.072446364567
 H   -1.324251733025   -0.075632280321    3.275446364567
 H   -0.248251733025   -1.406632280321    2.834446364567
 H   -0.894251733025   -1.316632280321    4.472446364567
 H    0.889748266975    0.866367719679    3.308446364567
 H    0.451988266975    0.619017719679    5.022306364567
 H    1.572348266975   -0.529822280321    4.162676364567
 C   -2.909251733025    0.163367719679   -1.590553635433
 C   -0.941251733025   -0.397632280321   -0.136553635433
 C   -1.418251733025    0.114367719679   -1.336553635433
 C    0.422748266975   -0.433632280321    0.114446364567
 C   -0.511251733025    0.606367719679   -2.274553635433
 C    1.330748266975    0.056367719679   -0.830553635433
 C    0.860748266975    0.579367719679   -2.024553635433
 O    2.652748266975   -0.020632280321   -0.514553635433
 H   -1.630251733025   -0.790632280321    0.600446364567
 H    0.805748266975   -0.853632280321    1.029446364567
 H   -3.438251733025   -0.357632280321   -0.792553635433
 H   -3.098251733025   -0.378632280321   -2.516553635433
 H   -0.872251733025    0.999367719679   -3.216553635433
 H    1.554748266975    0.952367719679   -2.760553635433
 H    3.218748266975    0.463367719679   -1.133553635433
 H   -3.317331733025    1.179977719679   -1.690418635433
