29
0 1 
 C    0.377798324616    3.048119880485    1.222027025602
 C    1.392798324616    3.504119880485    2.281027025602
 C   -0.247201675384    4.163119880485    0.377027025602
 H    0.873798324616    2.338119880485    0.558027025602
 H   -0.432201675384    2.531119880485    1.736027025602
 H    0.885798324616    4.160119880485    2.990027025602
 H    0.543798324616    4.729119880485   -0.113972974398
 H    2.242454324616    4.028909880485    1.819847025602
 H    1.756835324616    2.640439880485    2.856817025602
 H   -0.873428075384    3.721719880485   -0.412282974398
 H   -0.849031175384    4.857479880485    0.981727025602
 C   -1.519201675384   -0.116880119515    0.237027025602
 C   -2.382201675384   -0.851880119515    1.249027025602
 C   -0.493201675384   -0.999880119515   -0.416972974398
 C    0.700798324616   -1.285880119515    0.218027025602
 C   -0.750201675384   -1.576880119515   -1.665972974398
 C    1.626798324616   -2.141880119515   -0.378972974398
 C    0.182798324616   -2.396880119515   -2.265972974398
 C    1.356798324616   -2.696880119515   -1.613972974398
 H   -2.152201675384    0.343119880485   -0.523972974398
 H   -0.988201675384    0.677119880485    0.750027025602
 H   -1.721201675384   -1.378880119515    1.940027025602
 H    0.914798324616   -0.858880119515    1.188027025602
 H   -1.690201675384   -1.383880119515   -2.162972974398
 H    2.547798324616   -2.388880119515    0.132027025602
 H   -0.026201675384   -2.841880119515   -3.227972974398
 H    2.054798324616   -3.392880119515   -2.052972974398
 H   -3.044566675384   -1.567230119515    0.739577025602
 H   -2.969322675384   -0.120520119515    1.823827025602
