26
0 1 
 C    2.003735694028   -0.231861275907   -2.018376284010
 C   -0.475264305972   -0.390861275907   -1.581376284010
 C    0.830735694028   -0.814861275907   -1.277376284010
 C   -1.568264305972   -0.901861275907   -0.851376284010
 C    1.039735694028   -1.747861275907   -0.255376284010
 C   -1.350264305972   -1.825861275907    0.162623715990
 C   -0.050264305972   -2.249861275907    0.460623715990
 H   -0.647264305972    0.333138724093   -2.367376284010
 H   -2.574264305972   -0.576861275907   -1.083376284010
 H    2.624735694028    0.273138724093   -1.279376284010
 H    1.666735694028    0.521138724093   -2.732376284010
 H    2.038735694028   -2.073861275907   -0.003376284010
 H   -2.187264305972   -2.227861275907    0.711623715990
 H    0.110735694028   -2.979861275907    1.242623715990
 H    2.605725694028   -0.987201275907   -2.544758284010
 C    0.059735694028    1.917138724093    1.452623715990
 C   -0.751264305972    1.998138724093    2.760623715990
 C    0.110735694028    3.258138724093    0.705623715990
 H    1.073735694028    1.585138724093    1.671623715990
 H   -0.394264305972    1.172138724093    0.798623715990
 H   -1.688264305972    2.523138724093    2.586623715990
 H    0.433735694028    4.005138724093    1.417623715990
 H   -0.175994305972    2.499898724093    3.552646715990
 H   -1.021284305972    0.985378724093    3.094390715990
 H    0.822535694028    3.234148724093   -0.132686284010
 H   -0.894394305972    3.496398724093    0.327540715990
