23
0 1 
 C    0.751763980464   -2.924455328949   -0.135088498226
 C   -1.559236019536    0.730544671051   -0.357088498226
 C   -0.755236019536    0.319544671051   -1.446088498226
 C   -1.577236019536   -0.042455328949    0.823911501774
 C   -0.005236019536   -0.849455328949   -1.347088498226
 C   -0.818236019536   -1.214455328949    0.897911501774
 C   -0.031236019536   -1.622455328949   -0.189088498226
 H   -2.157236019536    1.634544671051   -0.416088498226
 H   -0.714236019536    0.900544671051   -2.360088498226
 H   -2.174236019536    0.263544671051    1.674911501774
 H    0.606763980464   -1.171455328949   -2.175088498226
 H   -0.840236019536   -1.812455328949    1.800911501774
 H    0.688763980464   -3.295455328949    0.889911501774
 H    1.784763980464   -2.691455328949   -0.359088498226
 H    0.391753980464   -3.665815328949   -0.863638498226
 C    1.015763980464    2.931544671051    0.975911501774
 C    2.337763980464    2.204544671051    0.544911501774
 H    0.893763980464    3.866544671051    0.425911501774
 H    0.154763980464    2.296544671051    0.777911501774
 H    1.048763980464    3.157544671051    2.031911501774
 H    2.290763980464    1.966544671051   -0.522088498226
 H    3.215473980464    2.839784671051    0.734911501774
 H    2.444123980464    1.272694671051    1.119661501774
