25
-1 1 
 C   -1.756412799433    2.024032114168   -0.533919812656
 C   -3.048412799433    1.719032114168    0.214080187344
 C   -1.741412799433    1.541032114168   -1.980919812656
 O   -2.776412799433    1.079032114168   -2.519919812656
 O   -0.657412799433    1.606032114168   -2.596919812656
 H   -1.506412799433    3.083032114168   -0.479919812656
 H   -0.959412799433    1.493032114168   -0.010919812656
 H   -2.834412799433    1.785032114168    1.279080187344
 H   -3.354412799433    0.691032114168    0.019080187344
 H   -3.890332799433    2.400722114168    0.023090187344
 C    3.157587200567   -0.105967885832    2.663080187344
 C    0.824587200567   -0.836967885832   -0.244919812656
 C    0.399587200567   -2.129967885832    0.051080187344
 C    1.717587200567   -0.180967885832    0.610080187344
 C    2.191587200567   -0.815967885832    1.759080187344
 C    0.862587200567   -2.773967885832    1.186080187344
 C    1.761587200567   -2.116967885832    2.045080187344
 H    0.472587200567   -0.341967885832   -1.137919812656
 H   -0.293412799433   -2.634967885832   -0.605919812656
 H    2.042587200567    0.822032114168    0.369080187344
 H    0.523587200567   -3.773967885832    1.418080187344
 H    2.856587200567   -0.282967885832    3.696080187344
 H    3.102587200567    0.967032114168    2.480080187344
 H    2.115587200567   -2.619967885832    2.934080187344
 H    4.202767200567   -0.424407885832    2.535850187344
