27
0 1 
 C   -1.944384141619    1.314105652307   -3.113243977109
 C    0.036615858381   -1.139894347693   -1.300243977109
 C   -0.857384141619    0.435105652307   -2.557243977109
 C    0.479615858381    0.395105652307   -2.817243977109
 N   -1.103384141619   -0.521894347693   -1.593243977109
 N    1.018615858381   -0.585894347693   -2.002243977109
 H    0.157615858381   -1.926894347693   -0.564243977109
 H    1.996615858381   -0.838894347693   -1.931243977109
 H    1.013615858381    1.037105652307   -3.504243977109
 H   -1.621384141619    2.344105652307   -3.020243977109
 H   -2.835384141619    1.186105652307   -2.495243977109
 H   -2.213524141619    1.110625652307   -4.160220977109
 C   -1.980384141619    0.097105652307    2.701756022891
 C   -0.551384141619    0.028105652307    2.273756022891
 C    0.189615858381   -1.134894347693    2.434756022891
 C    0.049615858381    1.152105652307    1.695756022891
 C    1.522615858381   -1.174894347693    2.019756022891
 C    1.384615858381    1.115105652307    1.295756022891
 C    2.126615858381   -0.053894347693    1.457756022891
 H   -2.507384141619   -0.772894347693    2.305756022891
 H   -2.436384141619    0.970105652307    2.247756022891
 H   -0.264384141619   -2.012894347693    2.874756022891
 H   -0.519384141619    2.062105652307    1.561756022891
 H    2.091615858381   -2.087894347693    2.133756022891
 H    1.840615858381    1.990105652307    0.854756022891
 H    3.161615858381   -0.089894347693    1.145756022891
 H   -2.112894141619    0.119425652307    3.793516022891
