30
0 1 
 C   -1.393092830420   -3.899082049944    0.202967194855
 C   -2.307092830420   -1.521082049944   -0.308032805145
 C   -1.655092830420   -2.674082049944   -0.616032805145
 C   -1.646092830420   -1.396082049944   -2.405032805145
 N   -2.281092830420   -0.738082049944   -1.440032805145
 N   -1.249092830420   -2.572082049944   -1.931032805145
 H   -2.757092830420   -1.246082049944    0.627967194855
 H   -2.692092830420    0.184917950056   -1.544032805145
 H   -1.470092830420   -3.663082049944    1.263967194855
 H   -0.369092830420   -4.220082049944    0.007967194855
 H   -1.478092830420   -1.029082049944   -3.412032805145
 H   -2.076632830420   -4.724812049944   -0.043886805145
 C    0.405907169580    1.228917950056   -0.097032805145
 C    0.985907169580    0.348917950056   -1.169032805145
 C    2.824907169580    1.298917950056    0.019967194855
 C    0.130907169580    2.568917950056    2.437967194855
 C    1.515907169580    2.325917950056    1.840967194855
 O    2.514907169580    2.750917950056    2.428967194855
 N    1.570907169580    1.639917950056    0.688967194855
 H   -0.072092830420    2.102917950056   -0.543032805145
 H   -0.303092830420    0.644917950056    0.490967194855
 H    0.417907169580    0.431917950056   -2.096032805145
 H    1.000907169580   -0.686082049944   -0.833032805145
 H    3.328907169580    0.495917950056    0.557967194855
 H   -0.643092830420    2.169917950056    1.792967194855
 H    2.018727169580    0.699587950056   -1.311516805145
 H    2.507767169580    0.956557950056   -0.976130805145
 H    3.493277169580    2.166857950056   -0.079820805145
 H    0.039567169580    2.083517950056    3.420843194855
 H   -0.088172830420    3.644837950056    2.504266194855
