23
0 1 
 C    3.556418833035    0.951390895010    0.972709989655
 C    3.046418833035    2.325390895010    0.480709989655
 H    4.535418833035    1.063390895010    1.441709989655
 H    2.889418833035    0.494390895010    1.693709989655
 H    3.643418833035    0.248390895010    0.144709989655
 H    2.107418833035    2.183390895010   -0.058290010345
 H    3.800688833035    2.759882895010   -0.191821010345
 H    2.872818833035    2.996128895010    1.335093989655
 C   -3.028581166965    0.552390895010    0.784709989655
 C    0.535418833035   -0.704609104990    0.193709989655
 C    0.401418833035   -1.361609104990   -1.014290010345
 C   -0.581581166965   -0.073609104990    0.777709989655
 C   -1.825581166965   -0.103609104990    0.149709989655
 C   -0.842581166965   -1.406609104990   -1.638290010345
 C   -1.955581166965   -0.768609104990   -1.048290010345
 H    1.481418833035   -0.724609104990    0.703709989655
 H    1.251418833035   -1.863609104990   -1.458290010345
 H   -0.468581166965    0.431390895010    1.725709989655
 H   -0.957581166965   -1.966609104990   -2.548290010345
 H   -3.553581166965    1.130390895010    0.023709989655
 H   -2.685581166965    1.253390895010    1.545709989655
 H   -2.922581166965   -0.820609104990   -1.526290010345
 H   -3.728031166965   -0.166451104990    1.236409989655
