34
0 1 
 C   -1.131748062294   -0.159867298153   -1.661777348858
 C   -2.400748062294   -0.914867298153   -2.050777348858
 C   -1.431748062294    1.242132701847   -1.180777348858
 C   -1.542748062294    2.292132701847   -2.085777348858
 C   -1.674748062294    1.499132701847    0.167222651142
 C   -1.867748062294    3.577132701847   -1.655777348858
 C   -2.003748062294    2.785132701847    0.598222651142
 C   -2.098748062294    3.822132701847   -0.314777348858
 O   -2.418748062294    5.084132701847    0.082222651142
 H   -0.624748062294   -0.697867298153   -0.866777348858
 H   -0.474748062294   -0.095867298153   -2.526777348858
 H   -2.941748062294   -0.277867298153   -2.753777348858
 H   -1.372748062294    2.112132701847   -3.139777348858
 H   -1.627748062294    0.691132701847    0.884222651142
 H   -1.940748062294    4.383132701847   -2.372777348858
 H   -2.285748062294    3.002132701847    1.607222651142
 H   -2.278748062294    5.721132701847   -0.626777348858
 H   -3.022343062294   -1.108218898153   -1.164078348858
 H   -2.197588062294   -1.872829878153   -2.551810348858
 C    3.503251937706   -5.029867298153    1.597222651142
 C    1.561251937706   -2.236867298153   -0.009777348858
 C    2.145251937706   -3.469867298153    0.203222651142
 C    1.696251937706   -1.201867298153    0.892222651142
 C    2.897251937706   -3.687867298153    1.335222651142
 C    2.399251937706   -1.419867298153    2.056222651142
 C    2.980251937706   -2.664867298153    2.270222651142
 H    0.951251937706   -2.115867298153   -0.885777348858
 H    1.985251937706   -4.260867298153   -0.512777348858
 H    1.215251937706   -0.251867298153    0.707222651142
 H    2.493251937706   -0.638867298153    2.797222651142
 H    2.756251937706   -5.768867298153    1.409222651142
 H    3.812251937706   -5.097867298153    2.641222651142
 H    3.499251937706   -2.840867298153    3.196222651142
 H    4.354471937706   -5.273482298153    0.944477651142
