16
0 1 
 C    0.840645272335   -1.523139525216   -0.019492036739
 C    0.769645272335   -3.040139525216   -0.045492036739
 H    1.590645272335   -1.163139525216   -0.728492036739
 H   -0.132354727665   -1.128139525216   -0.309492036739
 H    1.077645272335   -1.153139525216    0.977507963261
 H    0.072645272335   -3.379139525216    0.721507963261
 H    1.764125272335   -3.467169525216    0.151100263261
 H    0.399805272335   -3.372489525216   -1.026694036739
 C   -0.751354727665    1.553860474784   -0.185492036739
 C   -0.851354727665    3.005860474784    0.256507963261
 H   -0.508354727665    0.926860474784    0.671507963261
 H   -1.706354727665    1.231860474784   -0.602492036739
 H    0.016645272335    1.447860474784   -0.947492036739
 H   -1.208354727665    3.582860474784   -0.596492036739
 H    0.130855272335    3.404440474784    0.550458263261
 H   -1.587214727665    3.111700474784    1.067251563261
