23
0 1 
 C    2.334992722753   -1.667815680041   -2.703553739747
 C    2.142992722753   -1.802815680041   -4.185553739747
 H    1.441992722753   -1.971815680041   -2.169553739747
 H    3.153992722753   -2.322815680041   -2.407553739747
 H    2.579992722753   -0.635815680041   -2.449553739747
 H    1.908992722753   -2.844815680041   -4.396553739747
 H    1.320052722753   -1.162596680041   -4.536116739747
 H    3.088622722753   -1.566046680041   -4.695183739747
 C   -2.386007277247   -0.170815680041    2.778446260253
 C   -0.244007277247   -0.016815680041   -0.364553739747
 C    0.522992722753    1.121184319959   -0.127553739747
 C   -1.190007277247   -0.422815680041    0.571446260253
 C   -1.378007277247    0.296184319959    1.753446260253
 C    0.347992722753    1.845184319959    1.053446260253
 C   -0.593007277247    1.424184319959    1.990446260253
 H   -0.112007277247   -0.577815680041   -1.277553739747
 H    1.260992722753    1.437184319959   -0.853553739747
 H   -1.785007277247   -1.300815680041    0.381446260253
 H    0.962992722753    2.708184319959    1.258446260253
 H   -1.883007277247   -0.832815680041    3.475446260253
 H   -3.157007277247   -0.762815680041    2.282446260253
 H   -0.662007277247    1.985184319959    2.906446260253
 H   -2.854997277247    0.636139319959    3.360566260253
