16
0 1 
 C   -0.536627147870    1.530688070576    0.161571779184
 C   -1.810627147870    2.171688070576    0.772571779184
 H   -0.238627147870    0.656688070576    0.742571779184
 H   -0.707627147870    1.224688070576   -0.870428220816
 H    0.290372852130    2.241688070576    0.131571779184
 H   -2.038627147870    3.077688070576    0.210571779184
 H   -1.621364147870    2.447108070576    1.820581779184
 H   -2.676654147870    1.496448070576    0.708981779184
 C    0.599372852130   -1.833311929424   -0.986428220816
 C    1.750372852130   -1.873311929424    0.052571779184
 H    0.599372852130   -2.723311929424   -1.600428220816
 H   -0.354627147870   -1.792311929424   -0.458428220816
 H    0.689372852130   -0.943311929424   -1.609428220816
 H    1.720372852130   -2.827311929424    0.580571779184
 H    1.577372852130   -1.069311929424    0.767571779184
 H    2.730997852130   -1.738171929424   -0.427128220816
