26
0 1 
 C    1.268814609454   -0.327478187807   -0.307780930923
 C    2.533814609454   -0.972478187807    0.269219069077
 C    0.139814609454   -0.111478187807    0.679219069077
 C    0.368814609454    0.290521812193    2.002219069077
 C   -1.175185390546   -0.231478187807    0.235219069077
 C   -0.704185390546    0.491521812193    2.877219069077
 C   -2.239185390546   -0.030478187807    1.102219069077
 C   -2.010185390546    0.327521812193    2.424219069077
 H    1.525814609454    0.640521812193   -0.738780930923
 H    0.903814609454   -0.961478187807   -1.116780930923
 H    2.961814609454   -0.317478187807    1.025219069077
 H    1.370814609454    0.449521812193    2.362219069077
 H   -1.377185390546   -0.490478187807   -0.792780930923
 H   -0.530185390546    0.787521812193    3.899219069077
 H   -3.251185390546   -0.128478187807    0.737219069077
 H   -2.839185390546    0.471521812193    3.099219069077
 H    3.254594609454   -1.133406187807   -0.546000930923
 H    2.318074609454   -1.955595187807    0.712999069077
 C    0.117814609454   -0.283478187807   -3.885780930923
 C    1.041814609454    0.912521812193   -4.113780930923
 H    0.703814609454   -1.189478187807   -3.745780930923
 H   -0.482185390546   -0.121478187807   -2.990780930923
 H   -0.548185390546   -0.411478187807   -4.737780930923
 H    1.780814609454    0.913521812193   -3.311780930923
 H    1.558754609454    0.813000812193   -5.079630930923
 H    0.482754609454    1.857197812193   -4.042820930923
