23
-1 1 
 C   -2.291822232082    3.156073198459   -1.009258941132
 C   -1.159822232082    3.654073198459   -0.104258941132
 O   -0.767822232082    2.909073198459    0.814741058868
 O   -0.649822232082    4.771073198459   -0.311258941132
 H   -3.063822232082    2.677073198459   -0.411258941132
 H   -1.866822232082    2.378073198459   -1.647258941132
 H   -2.751422232082    3.920403198459   -1.653128941132
 C    1.228177767918   -4.534926801541   -1.233258941132
 C    0.403177767918   -0.799926801541    0.708741058868
 C    0.448177767918   -0.824926801541   -0.682258941132
 C    0.639177767918   -1.942926801541    1.459741058868
 C    0.733177767918   -2.026926801541   -1.325258941132
 C    0.909177767918   -3.133926801541    0.814741058868
 C    0.956177767918   -3.187926801541   -0.572258941132
 O    0.098177767918    0.337073198459    1.383741058868
 H   -0.121822232082    1.116073198459    0.846741058868
 H    0.254177767918    0.073073198459   -1.251258941132
 H    0.602177767918   -1.892926801541    2.537741058868
 H    0.757177767918   -2.068926801541   -2.408258941132
 H    1.096177767918   -4.028926801541    1.391741058868
 H    0.516177767918   -4.653926801541   -2.047258941132
 H    1.064177767918   -5.341926801541   -0.517258941132
 H    2.241337767918   -4.619356801541   -1.653238941132
