16
0 1 
 C    1.757076682002    0.816498437439    0.654005063857
 C    2.046076682002   -0.484501562561    1.375005063857
 H    1.577076682002    0.628498437439   -0.404994936143
 H    0.871076682002    1.282498437439    1.086005063857
 H    2.603076682002    1.496498437439    0.761005063857
 H    1.163076682002   -1.124501562561    1.333005063857
 H    2.203076682002   -0.229501562561    2.423005063857
 H    2.918330882002   -1.025181562561    0.978985063857
 C   -1.703923317998    0.475498437439   -0.655994936143
 C   -2.089923317998   -0.808501562561   -1.384994936143
 H   -2.531923317998    1.184498437439   -0.683994936143
 H   -1.475923317998    0.243498437439    0.383005063857
 H   -0.820923317998    0.928498437439   -1.102994936143
 H   -2.939923317998   -1.232501562561   -0.854994936143
 H   -2.407794317998   -0.598961562561   -2.417004936143
 H   -1.270040317998   -1.541361562561   -1.358384936143
