16
0 1 
 C   -0.910129798130    1.332906356922    0.324115204628
 C   -1.076129798130    2.831906356922    0.573115204628
 H   -1.798129798130    0.928906356922   -0.165884795372
 H   -0.051129798130    1.177906356922   -0.329884795372
 H   -0.728129798130    0.787906356922    1.251115204628
 H   -0.172129798130    3.215906356922    1.036115204628
 H   -1.941269798130    3.029146356922    1.223216204628
 H   -1.183659798130    3.360916356922   -0.385311795372
 C    0.254870201870   -2.130093643078   -0.638884795372
 C    1.727870201870   -2.039093643078   -0.255884795372
 H   -0.314129798130   -2.651093643078    0.131115204628
 H   -0.166129798130   -1.131093643078   -0.739884795372
 H    0.141870201870   -2.647093643078   -1.593884795372
 H    1.795870201870   -1.691093643078    0.774115204628
 H    2.212320201870   -3.023084643078   -0.339980795372
 H    2.246550201870   -1.305141643078   -0.890145795372
