25
0 1 
 C   -2.249657023535    1.601240515196   -3.954018790225
 C   -1.324657023535    0.476240515196    0.100981209775
 C   -1.259657023535    1.807240515196   -0.288018790225
 C   -1.686657023535   -0.506759484804   -0.804018790225
 C   -1.551657023535    2.159240515196   -1.605018790225
 C   -1.973657023535   -0.148759484804   -2.127018790225
 C   -1.922657023535    1.189240515196   -2.539018790225
 O   -1.033657023535    0.133240515196    1.386981209775
 H   -0.825657023535    0.904240515196    1.927981209775
 H   -0.968657023535    2.569240515196    0.422981209775
 H   -1.738657023535   -1.537759484804   -0.483018790225
 H   -1.474657023535    3.193240515196   -1.905018790225
 H   -2.263657023535   -0.916759484804   -2.831018790225
 H   -1.874657023535    2.614240515196   -4.082018790225
 H   -1.602657023535    0.984240515196   -4.600018790225
 H   -3.327824023535    1.636510515196   -4.169218790225
 C    3.301342976465   -2.658759484804    3.032981209775
 C    3.003342976465   -1.472759484804    2.124981209775
 O    3.801342976465   -0.520759484804    2.016981209775
 N    1.789342976465   -1.485759484804    1.533981209775
 H    1.545342976465   -0.706759484804    0.937981209775
 H    1.130342976465   -2.227759484804    1.713981209775
 H    2.562342976465   -3.444759484804    2.873981209775
 H    3.177342976465   -2.323759484804    4.063981209775
 H    4.313352976465   -3.076349484804    2.925981209775
