24
0 1 
 C    0.101683655438    0.751340374489    2.309631087083
 C    1.088683655438    0.296340374489    3.388631087083
 C   -1.030316344562   -0.240659625511    2.084631087083
 O   -1.000316344562   -1.371659625511    2.567631087083
 N   -2.042316344562    0.179340374489    1.344631087083
 H   -0.342316344562    1.697340374489    2.624631087083
 H    0.619683655438    0.929340374489    1.373631087083
 H    0.502683655438    0.079340374489    4.285631087083
 H   -2.821316344562   -0.445659625511    1.197631087083
 H   -2.062316344562    1.124340374489    0.989631087083
 H    1.807893655438    1.100254374489    3.604168087083
 H    1.612723655438   -0.623252625511    3.089077087083
 C    0.497683655438   -0.334659625511   -1.338368912917
 C    1.093683655438   -1.719659625511   -1.599368912917
 C    0.473683655438    0.525340374489   -2.586368912917
 O    0.569683655438    0.025340374489   -3.703368912917
 N    0.332683655438    1.828340374489   -2.405368912917
 H   -0.528316344562   -0.439659625511   -0.986368912917
 H    1.086683655438    0.171340374489   -0.577368912917
 H    0.569683655438   -2.159659625511   -2.450368912917
 H    0.275683655438    2.423340374489   -3.216368912917
 H    0.243683655438    2.209340374489   -1.476368912917
 H    0.975743655438   -2.355479025511   -0.709523912917
 H    2.154583655438   -1.643055225511   -1.879769912917
