16
0 1 
 C   -1.696219325671    0.224223703353   -1.196266922243
 C   -2.566219325671   -0.923776296647   -0.742266922243
 H   -2.206219325671    0.815223703353   -1.957266922243
 H   -1.506219325671    0.883223703353   -0.346266922243
 H   -0.735219325671   -0.133776296647   -1.570266922243
 H   -3.519219325671   -0.493776296647   -0.449266922243
 H   -2.745429325671   -1.616947996647   -1.577370922243
 H   -2.153949325671   -1.401357996647    0.158817077757
 C    1.438780674329    0.384223703353    0.649733077757
 C    2.829780674329    0.301223703353    1.282733077757
 H    1.050780674329   -0.616776296647    0.458733077757
 H    0.762780674329    0.894223703353    1.337733077757
 H    1.458780674329    0.962223703353   -0.275266922243
 H    3.244780674329    1.308223703353    1.321733077757
 H    3.476230674329   -0.337178296647    0.662612077757
 H    2.800000674329   -0.095357296647    2.308324077757
