22
0 1 
 C    0.603118658899    0.585391927642   -1.032638711859
 C    2.051118658899    1.051391927642   -1.293638711859
 C   -0.383881341101    1.737391927642   -0.738638711859
 C    0.188118658899   -0.159608072358   -2.313638711859
 H    0.623118658899   -0.096608072358   -0.183638711859
 H    2.060118658899    1.717391927642   -2.156638711859
 H    2.666118658899    0.179391927642   -1.515638711859
 H   -0.418881341101    2.420391927642   -1.587638711859
 H   -1.382881341101    1.334391927642   -0.562638711859
 H   -0.060881341101    2.284391927642    0.148361288141
 H    0.857118658899   -1.005608072358   -2.480638711859
 H   -0.829881341101   -0.524608072358   -2.213638711859
 H    0.245118658899    0.516391927642   -3.167638711859
 H    2.573628658899    1.601781927642   -0.497358711859
 C   -0.919881341101   -1.320608072358    1.955361288141
 C   -1.469881341101   -1.812608072358    3.293361288141
 H   -1.454881341101   -1.806608072358    1.139361288141
 H   -1.048881341101   -0.240608072358    1.880361288141
 H    0.140118658899   -1.562608072358    1.883361288141
 H   -0.924881341101   -1.322608072358    4.101361288141
 H   -1.326841341101   -2.901428072358    3.356701288141
 H   -2.535471341101   -1.562088072358    3.401851288141
