19
1 1 
 C    1.411551828519    1.890740605907    0.023996328261
 C   -0.787448171481    0.886740605907    0.644996328261
 N   -1.520448171481   -0.213259394093    0.684996328261
 N    0.461551828519    0.796740605907    0.209996328261
 N   -1.314448171481    2.040740605907    1.002996328261
 H   -1.144448171481   -1.072259394093    0.307996328261
 H   -2.488448171481   -0.166259394093    0.959996328261
 H    0.732551828519   -0.105259394093   -0.166003671739
 H   -0.782448171481    2.887740605907    0.907996328261
 H   -2.269448171481    2.086740605907    1.321996328261
 H    0.974551828519    2.625740605907   -0.653003671739
 H    2.307551828519    1.502740605907   -0.439003671739
 H    1.710016528519    2.415860605907    0.943326328261
 C    1.351551828519   -3.006259394093   -1.043003671739
 O    0.367551828519   -2.005259394093   -1.271003671739
 H   -0.213448171481   -2.332259394093   -1.974003671739
 H    1.337551828519   -3.714259394093   -1.870003671739
 H    2.341601728519   -2.529809394093   -0.990143671739
 H    1.113389628519   -3.511629394093   -0.095437671739
