28
0 1 
 C   -0.771142391157   -3.433383700306   -0.058439732658
 C   -0.665142391157   -2.736383700306   -1.380439732658
 C   -0.608142391157   -1.036383700306   -2.775439732658
 C   -0.417142391157   -3.225383700306   -2.625439732658
 N   -0.768142391157   -1.368383700306   -1.500439732658
 N   -0.369142391157   -2.139383700306   -3.475439732658
 H   -0.656142391157   -0.031383700306   -3.180439732658
 H   -1.035142391157   -4.478383700306   -0.215439732658
 H   -1.587142391157   -2.961383700306    0.483560267342
 H   -0.208142391157   -2.165383700306   -4.476439732658
 H   -0.264142391157   -4.265383700306   -2.883439732658
 H    0.133867608843   -3.336418700306    0.559260267342
 C    2.409857608843    3.806616299694    2.332560267342
 C   -0.468142391157    0.825616299694    1.118560267342
 C    0.863857608843    0.716616299694    0.703560267342
 C   -0.869142391157    1.893616299694    1.903560267342
 C    1.802857608843    1.672616299694    1.109560267342
 C    0.078857608843    2.854616299694    2.301560267342
 C    1.419857608843    2.729616299694    1.938560267342
 O   -1.411142391157   -0.077383700306    0.707560267342
 H   -1.100142391157   -0.586383700306   -0.070439732658
 H    1.167857608843   -0.101383700306    0.066560267342
 H   -1.902142391157    1.983616299694    2.203560267342
 H    2.830857608843    1.581616299694    0.787560267342
 H   -0.236142391157    3.693616299694    2.900560267342
 H    3.303857608843    3.326616299694    2.728560267342
 H    1.988857608843    4.426616299694    3.124560267342
 H    2.703007608843    4.445956299694    1.486800267342
