20
0 1 
 C   -0.473053012135   -1.730870698878    0.392189553000
 C    0.605946987865   -2.062870698878   -0.637810447000
 O   -1.236053012135   -2.874870698878    0.721189553000
 H    0.003946987865   -1.341870698878    1.294189553000
 H   -1.131053012135   -0.959870698878   -0.010810447000
 H    1.189946987865   -1.164870698878   -0.829810447000
 H   -1.976053012135   -2.606870698878    1.283189553000
 H    0.160873987865   -2.424540698878   -1.576482447000
 H    1.280921887865   -2.843200698878   -0.256366447000
 C    0.053946987865    1.895129301121   -0.155810447000
 C    1.275946987865    1.900129301122   -1.066810447000
 C   -0.085053012135    3.185129301122    0.647189553000
 H   -0.846053012135    1.739129301121   -0.752810447000
 H    0.164946987865    1.050129301122    0.519189553000
 H    1.390946987865    0.915129301122   -1.518810447000
 H    0.799946987865    3.333129301122    1.267189553000
 H   -0.185053012135    4.040129301122   -0.021810447000
 H    2.180835647865    2.163179301122   -0.499376447000
 H    1.130575987865    2.613899301122   -1.891065447000
 H   -0.952126012135    3.169929301122    1.323911553000
