23
0 1 
 C   -2.368897224944   -0.043869805119    2.522985132927
 C   -2.522897224944   -1.449869805119    3.111985132927
 H   -3.208897224944    0.574130194881    2.838985132927
 H   -1.436897224944    0.417130194881    2.849985132927
 H   -2.340897224944   -0.074869805119    1.433985132927
 H   -1.671897224944   -2.041869805119    2.775985132927
 H   -3.447087224944   -1.918753805119    2.743165132927
 H   -2.520037224944   -1.439134805119    4.211925132927
 C    0.566102775056    2.079130194881    0.679985132927
 C    0.434102775056   -0.348869805119    0.076985132927
 C    0.723102775056    0.954130194881   -0.307014867073
 C    0.555102775056   -1.395869805119   -0.823014867073
 C    1.125102775056    1.195130194881   -1.620014867073
 C    0.967102775056   -1.148869805119   -2.122014867073
 C    1.248102775056    0.146130194881   -2.520014867073
 H    0.124102775056   -0.554869805119    1.091985132927
 H    0.327102775056   -2.406869805119   -0.511014867073
 H    0.976102775056    1.776130194881    1.644985132927
 H   -0.502897224944    2.251130194881    0.812985132927
 H    1.369102775056    2.174130194881   -1.992014867073
 H    1.069102775056   -1.965869805119   -2.824014867073
 H    1.572102775056    0.339130194881   -3.535014867073
 H    1.035622775056    3.023200194881    0.366495132927
