26
0 1 
 C   -0.898147486817   -0.432880941503    3.598198209480
 C    0.736852513183   -1.410880941503    0.482198209480
 C   -0.545147486817   -0.924880941503    2.211198209480
 C   -1.355147486817   -1.207880941503    1.146198209480
 N    0.756852513183   -1.066880941503    1.765198209480
 N   -0.533147486817   -1.498880941503    0.083198209480
 H    1.647852513183   -1.576880941503   -0.080801790520
 H   -0.849147486817   -1.744880941503   -0.833801790520
 H   -2.433147486817   -1.220880941503    1.058198209480
 H   -0.284147486817   -0.999880941503    4.301198209480
 H   -1.942147486817   -0.677880941503    3.771198209480
 H   -0.823277486817    0.655529058497    3.738748209480
 C    0.280852513183    1.346119058497   -1.922801790520
 C    0.688852513183    0.385119058497   -3.068801790520
 C    1.540852513183    1.975119058497   -1.335801790520
 C   -0.722147486817    2.422119058497   -2.398801790520
 H   -0.230147486817    0.787119058497   -1.141801790520
 H    1.276852513183   -0.437880941503   -2.660801790520
 H    1.301852513183    0.928119058497   -3.791801790520
 H    2.064852513183    2.534119058497   -2.110801790520
 H    1.269852513183    2.648119058497   -0.523801790520
 H    2.195852513183    1.192119058497   -0.949801790520
 H   -1.629147486817    1.943119058497   -2.771801790520
 H   -0.990147486817    3.075119058497   -1.565801790520
 H   -0.277147486817    3.019119058497   -3.194801790520
 H   -0.154187486817   -0.097530941503   -3.584861790520
