24
0 1 
 C    1.604307351835   -0.002170526926    2.836629247772
 C    2.695307351835   -0.031170526926    3.970629247772
 H    1.840307351835    0.775829473074    2.109629247772
 H    1.559307351835   -0.964170526926    2.327629247772
 H    0.616307351835    0.187829473074    3.254629247772
 H    2.421307351835   -0.801170526926    4.686629247772
 H    2.748417351835    0.923479473074    4.514529247772
 H    3.676487351835   -0.292866526926    3.547779247772
 C   -1.205692648165    2.502829473074   -2.405370752228
 C   -0.298692648165   -1.170170526926   -0.296370752228
 C   -1.616692648165   -0.878170526926   -0.648370752228
 C    0.761307351835   -0.265170526926   -0.591370752228
 C   -1.910692648165    0.324829473074   -1.283370752228
 C    0.460307351835    0.942829473074   -1.239370752228
 C   -0.878692648165    1.235829473074   -1.625370752228
 O   -0.071692648165   -2.346170526926    0.364629247772
 H   -2.412692648165   -1.568170526926   -0.406370752228
 H   -0.878692648165   -2.853170526926    0.495629247772
 H    1.773307351835   -0.501170526926   -0.299370752228
 H   -2.933692648165    0.547829473074   -1.557370752228
 H    1.252307351835    1.640829473074   -1.471370752228
 H   -0.617692648165    3.334829473074   -2.014370752228
 H   -2.253692648165    2.738829473074   -2.221370752228
 H   -1.018930648165    2.400894473074   -3.484596752228
