28
0 1 
 C   -0.983635813936   -3.354787230805   -0.386124040912
 C   -0.281635813936   -1.550787230805   -2.017124040912
 C    0.039364186064   -2.390787230805   -0.946124040912
 C    0.645364186064   -0.624787230805   -2.501124040912
 C    1.903364186064   -0.528787230805   -1.907124040912
 C    1.307364186064   -2.284787230805   -0.364124040912
 C    2.237364186064   -1.359787230805   -0.839124040912
 O    2.791364186064    0.391212769195   -2.362124040912
 H   -1.267635813936   -1.586787230805   -2.462124040912
 H    0.385364186064    0.018212769195   -3.324124040912
 H   -1.903635813936   -2.802787230805   -0.217124040912
 H   -0.639635813936   -3.699787230805    0.589875959088
 H    1.569364186064   -2.900787230805    0.482875959088
 H    2.426364186064    0.911212769195   -3.082124040912
 H    3.213364186064   -1.275787230805   -0.385124040912
 H   -1.212155813936   -4.235097230805   -1.004854040912
 C   -2.408635813936    2.557212769195    3.667875959088
 C   -0.764635813936    0.780212769195    0.961875959088
 C   -1.615635813936    2.143212769195    2.464875959088
 C   -0.992635813936    2.897212769195    1.522875959088
 N   -1.460635813936    0.823212769195    2.093875959088
 N   -0.470635813936    2.022212769195    0.594875959088
 H   -0.488635813936   -0.116787230805    0.422875959088
 H    0.048364186064    2.272212769195   -0.239124040912
 H   -0.948635813936    3.977212769195    1.488875959088
 H   -1.997635813936    3.484212769195    4.064875959088
 H   -2.288635813936    1.788212769195    4.431875959088
 H   -3.480655813936    2.676002769195    3.451885959088
