15
0 1 
 C    0.742874909029   -2.058046735479   -0.907446977201
 C   -0.527125090971   -1.219046735479   -0.895446977201
 O   -1.594125090971   -1.693046735479   -1.293446977201
 N   -0.441125090971    0.016953264521   -0.422446977201
 H   -1.291125090971    0.558953264521   -0.388446977201
 H    0.378874909029    0.350953264521    0.061553022799
 H    0.584874909029   -2.901046735479   -1.582446977201
 H    0.897874909029   -2.450046735479    0.098553022799
 H    1.639718909029   -1.500297735479   -1.214997977201
 C    1.217874909029    2.845953264521    1.398553022799
 O    0.518874909029    1.659953264521    1.766553022799
 H   -0.274125090971    1.926953264521    2.254553022799
 H    1.183874909029    3.545953264521    2.233553022799
 H    2.264776909029    2.580969264521    1.189317022799
 H    0.739477909029    3.310784264521    0.523871022799
