24
0 1 
 C   -0.808211387184   -1.817674463405   -2.195941533905
 C   -0.548211387184   -0.767674463405    0.072058466095
 C   -0.131211387184   -1.717674463405   -0.859941533905
 C    0.072788612816   -0.671674463405    1.318058466095
 C    0.914788612816   -2.576674463405   -0.533941533905
 C    1.120788612816   -1.532674463405    1.639058466095
 C    1.541788612816   -2.488674463405    0.711058466095
 H   -1.377211387184   -0.117674463405   -0.156941533905
 H   -0.272211387184    0.053325536595    2.042058466095
 H   -0.171211387184   -2.364674463405   -2.890941533905
 H   -0.926211387184   -0.806674463405   -2.584941533905
 H    1.231788612816   -3.331674463405   -1.237941533905
 H    1.579788612816   -1.461674463405    2.610058466095
 H    2.318788612816   -3.193674463405    0.951058466095
 H   -1.793481387184   -2.305634463405   -2.162111533905
 C   -0.433211387184    2.777325536595    0.181058466095
 C   -1.878211387184    3.256325536595   -0.001941533905
 O    0.496788612816    3.811325536595   -0.107941533905
 H   -0.287211387184    2.442325536595    1.205058466095
 H   -0.243211387184    1.934325536595   -0.482941533905
 H   -2.558211387184    2.560325536595    0.492058466095
 H    0.498788612816    4.461325536595    0.619058466095
 H   -2.127761387184    3.343295536595   -1.069721533905
 H   -1.983871387184    4.251015536595    0.455688466095
