32
1 1 
 C    2.412842675267   -1.468201969734   -1.116171955376
 C    0.367842675267   -2.097201969734   -2.281171955376
 N   -0.212157324733   -0.967201969734   -1.896171955376
 N    1.620842675267   -2.370201969734   -1.927171955376
 N   -0.300157324733   -2.963201969734   -3.023171955376
 H    0.295842675267   -0.300201969734   -1.334171955376
 H   -1.170157324733   -0.764201969734   -2.172171955376
 H    2.042842675267   -3.236201969734   -2.233171955376
 H    0.133842675267   -3.823201969734   -3.321171955376
 H   -1.265157324733   -2.762201969734   -3.289171955376
 H    2.197842675267   -0.446201969734   -1.432171955376
 H    3.460842675267   -1.679201969734   -1.293171955376
 H    2.194742675267   -1.568051969734   -0.042641955376
 C   -2.477157324733   -0.745201969734    2.319828044624
 C   -0.855157324733    0.926798030266    1.075828044624
 C   -1.181157324733   -0.002201969734    2.135828044624
 C    0.437842675267    1.444798030266    1.347828044624
 C   -0.122157324733   -0.013201969734    2.981828044624
 C   -1.511157324733    1.384798030266   -0.085171955376
 C   -0.866157324733    2.324798030266   -0.914171955376
 C    0.414842675267    2.816798030266   -0.613171955376
 C    1.075842675267    2.377798030266    0.517828044624
 N    0.847842675267    0.853798030266    2.520828044624
 H   -2.500157324733    1.028798030266   -0.361171955376
 H   -1.379157324733    2.665798030266   -1.802171955376
 H    0.885842675267    3.538798030266   -1.265171955376
 H   -2.247157324733   -1.677201969734    2.831828044624
 H   -2.858157324733   -0.976201969734    1.319828044624
 H   -0.139157324733   -0.644201969734    3.863828044624
 H    1.731842675267    1.038798030266    2.980828044624
 H    2.063842675267    2.732798030266    0.781828044624
 H   -3.200757324733   -0.197881969734    2.941788044624
