19
0 1 
 C    1.579358465670   -0.802525965605    1.093638140993
 C    2.458358465670   -0.605525965605    2.317638140993
 H    1.710358465670   -1.809525965605    0.719638140993
 H    0.554358465670   -0.742525965605    1.457638140993
 H    1.744358465670   -0.043525965605    0.328638140993
 H    2.263358465670   -1.424525965605    3.009638140993
 H    3.523286465670   -0.625565965605    2.042818140993
 H    2.195621465670    0.338734034395    2.816984140993
 C   -1.321641534330    0.026474034395   -0.859361859007
 C   -0.830641534330    0.087474034395   -2.305361859007
 C   -1.962641534330    1.306474034395   -0.318361859007
 H   -2.057641534330   -0.777525965605   -0.779361859007
 H   -0.490641534330   -0.235525965605   -0.235361859007
 H   -0.006641534330    0.795474034395   -2.364361859007
 H   -2.813641534330    1.574474034395   -0.943361859007
 H   -1.651709534330    0.415144034395   -2.959945859007
 H   -0.446561534330   -0.904615965605   -2.585087859007
 H   -2.357322534330    1.150186034395    0.696429140993
 H   -1.247883534330    2.142036034395   -0.349281859007
