23
0 1 
 C    3.076993708776    1.156048826630    1.530285705358
 C    0.040993708776   -0.196951173370   -0.382714294642
 C    1.126993708776   -0.122951173370    0.471285705358
 C   -0.374006291224    0.891048826630   -1.129714294642
 C    1.879993708776    1.039048826630    0.596285705358
 C    0.375993708776    2.059048826630   -1.018714294642
 C    1.476993708776    2.141048826630   -0.151714294642
 H   -0.505006291224   -1.125951173370   -0.458714294642
 H    1.398993708776   -0.992951173370    1.050285705358
 H   -1.232006291224    0.830048826630   -1.786714294642
 H    0.079993708776    2.923048826630   -1.592714294642
 H    2.859993708776    0.600048826630    2.443285705358
 H    3.194993708776    2.201048826630    1.821285705358
 H    2.023993708776    3.062048826630   -0.065714294642
 H    4.030823708776    0.805925826630    1.108845705358
 C   -2.944006291224   -2.483951173370   -0.088714294642
 C   -3.926006291224   -3.641951173370   -0.007714294642
 H   -2.123006291224   -2.640951173370    0.602285705358
 H   -2.551006291224   -2.406951173370   -1.103714294642
 H   -3.421006291224   -1.545951173370    0.171285705358
 H   -4.703006291224   -3.460951173370   -0.747714294642
 H   -4.381626291224   -3.678798173370    0.992815705358
 H   -3.411066291224   -4.576633173370   -0.274564294642
