27
0 1 
 C    0.620345159982   -2.327802033518    0.281718111882
 C   -0.722654840018   -2.880802033518    0.675718111882
 C    0.837345159982   -2.428802033518   -1.212281888118
 H    0.673345159982   -1.285802033518    0.575718111882
 H    1.422345159982   -2.848802033518    0.798718111882
 H   -0.779654840018   -3.936802033518    0.403718111882
 H   -1.489654840018   -2.346802033518    0.111718111882
 H    0.793345159982   -3.479802033518   -1.505281888118
 H    0.040345159982   -1.880802033518   -1.719281888118
 H   -0.940214840018   -2.764102033518    1.747655311882
 H    1.815025159982   -2.009582033518   -1.492264888118
 C    1.513345159982    1.589197966482    2.426718111882
 C   -1.441654840018    0.758197966482    0.162718111882
 C   -0.692654840018    0.997197966482    1.306718111882
 C   -0.823654840018    0.794197966482   -1.081281888118
 C    0.665345159982    1.302197966482    1.207718111882
 C    0.512345159982    1.086197966482   -1.194281888118
 C    1.249345159982    1.343197966482   -0.057281888118
 O   -1.532654840018    0.526197966482   -2.221281888118
 H   -2.489654840018    0.524197966482    0.240718111882
 H   -1.167654840018    0.974197966482    2.272718111882
 H   -2.460654840018    0.347197966482   -2.024281888118
 H    0.977345159982    1.109197966482   -2.169281888118
 H    2.546345159982    1.295197966482    2.232718111882
 H    1.144345159982    0.963197966482    3.239718111882
 H    2.305345159982    1.568197966482   -0.150281888118
 H    1.484645159982    2.645917966482    2.730892111882
