26
2 1 
 C   -1.864537034350   -1.745604727826    0.238017535519
 C   -0.104537034350   -0.803604727826    1.702017535519
 N   -1.295537034350   -0.722604727826    1.126017535519
 N    0.663462965650   -1.854604727826    1.504017535519
 N    0.319462965651    0.169395272174    2.483017535519
 H   -1.857537034350    0.096395272174    1.326017535519
 H    0.316462965650   -2.671604727826    1.009017535519
 H    1.570462965650   -1.902604727826    1.942017535519
 H   -0.289537034350    0.940395272174    2.717017535519
 H    1.204462965650    0.091395272174    2.961017535519
 H   -1.930537034350   -2.711604727826    0.741017535519
 H   -1.200537034349   -1.861604727826   -0.621982464481
 H   -2.853757034350   -1.449054727826   -0.140792464481
 C    0.860462965651   -0.266604727826   -2.881982464481
 C    0.333462965650    1.307395272174   -1.059982464481
 N   -0.023537034349    0.645395272174   -2.149982464481
 N    1.545462965650    1.158395272174   -0.560982464481
 N   -0.518537034350    2.116395272174   -0.467982464481
 H   -0.961537034350    0.794395272174   -2.504982464481
 H    2.186462965650    0.501395272174   -0.973982464481
 H    1.819462965650    1.656395272174    0.273017535519
 H   -1.431537034349    2.277395272174   -0.868982464481
 H   -0.232537034350    2.678395272174    0.319017535519
 H    1.175462965651   -1.086604727826   -2.231982464481
 H    1.742462965651    0.288395272174   -3.210982464481
 H    0.373922965650   -0.694414727826   -3.770952464481
