24
1 1 
 C   -0.656106783196   -2.800115859421    0.345937925528
 C   -0.874106783196   -0.760115859421   -1.036062074472
 N   -0.241106783196   -1.876115859421   -0.715062074472
 N   -1.963106783196   -0.402115859421   -0.388062074472
 N   -0.416106783196   -0.000115859421   -2.010062074472
 H    0.523893216804   -2.153115859421   -1.331062074472
 H   -2.409106783196   -1.045115859421    0.253937925528
 H   -2.445106783196    0.477884140579   -0.588062074472
 H    0.383893216804   -0.342115859421   -2.531062074472
 H   -0.904106783196    0.840884140579   -2.278062074472
 H   -1.007106783196   -3.725115859421   -0.118062074472
 H   -1.462106783196   -2.401115859421    0.960937925528
 H    0.186793216804   -3.035342859421    1.012414925528
 C    1.032893216804    1.643884140579    0.973937925528
 C    1.084893216804    1.643884140579    2.486937925528
 C    2.093893216804    2.552884140579    0.365937925528
 H    1.178893216804    0.622884140579    0.627937925528
 H    0.046893216804    1.974884140579    0.646937925528
 H    0.713893216804    2.594884140579    2.872937925528
 H    2.126893216804    1.533884140579    2.793937925528
 H    1.883893216804    3.583884140579    0.658937925528
 H    3.083893216804    2.293884140579    0.746937925528
 H    0.510123216804    0.806882540579    2.910108925528
 H    2.068363216804    2.475547140579   -0.731043074472
