15
0 1 
 C    3.160944172868    0.178465350763   -0.924801031482
 N    2.496944172868   -0.648534649237    0.127198968518
 H    1.522944172868   -0.344534649237    0.203198968518
 H    2.466944172868   -1.623534649237   -0.157801031482
 H    2.898944172868   -0.570534649237    1.051198968518
 H    2.547944172868    0.133465350763   -1.832801031482
 H    4.137944172868   -0.216534649237   -1.218801031482
 H    3.234373172868    1.238145350763   -0.639003031482
 C   -2.183055827132    0.394465350763    1.453198968518
 C   -1.484055827132    0.122465350763    0.134198968518
 O   -0.358055827132    0.636465350763   -0.061801031482
 O   -2.059055827132   -0.598534649237   -0.713801031482
 H   -3.071055827132   -0.224534649237    1.547198968518
 H   -2.544055827132    1.421465350763    1.388198968518
 H   -1.499233827132    0.315615350763    2.311202968518
