23
0 1 
 C   -1.394359790486    1.526947121213    2.064351942888
 C   -0.321359790486    0.205947121213    0.231351942888
 C   -0.191359790486    0.870947121213    1.429351942888
 C    0.791640209514   -0.432052878787   -0.358648057112
 C    2.035640209514   -0.387052878787    0.265351942888
 C    1.052640209514    0.900947121213    2.057351942888
 C    2.169640209514    0.269947121213    1.473351942888
 H   -1.288359790486    0.153947121213   -0.246648057112
 H    0.676640209514   -0.992052878787   -1.268648057112
 H   -1.919359790486    2.104947121213    1.303351942888
 H   -1.051359790486    2.227947121213    2.825351942888
 H    2.885640209514   -0.889052878787   -0.178648057112
 H    1.165640209514    1.405947121213    3.005351942888
 H    3.115640209514    0.249947121213    1.983351942888
 H   -2.093809790486    0.808105121213    2.516051942888
 C   -2.070359790486   -0.690052878787   -3.078648057112
 C   -1.338359790486   -2.016052878787   -3.310648057112
 H   -3.010359790486   -0.860052878787   -2.551648057112
 H   -1.456359790486   -0.018052878787   -2.481648057112
 H   -2.280359790486   -0.203052878787   -4.032648057112
 H   -1.225359790486   -2.531052878787   -2.356648057112
 H   -1.915859790486   -2.637369178787   -4.010978057112
 H   -0.339149790486   -1.791194878787   -3.711918057112
