20
0 1 
 C   -3.151992471771    0.856530616474    0.382882230222
 C   -3.310992471771    0.716530616474    1.891882230222
 H   -3.004992471771   -0.123469383526   -0.075117769778
 H   -4.047992471771    1.314530616474   -0.040117769778
 H   -2.298992471771    1.499530616474    0.161882230222
 H   -3.393992471771    1.715530616474    2.315882230222
 H   -2.429172471771    0.209142616474    2.310152230222
 H   -4.227822471771    0.154697616474    2.123772230222
 C    0.263007528229   -0.340469383526   -0.694117769778
 C    0.369007528229   -0.705469383526   -2.176117769778
 C    1.593007528229   -0.183469383526    0.015882230222
 O    1.746007528229    0.685530616474    0.883882230222
 N    2.566007528229   -1.022469383526   -0.331117769778
 H   -0.282992471771    0.599530616474   -0.609117769778
 H   -0.295992471771   -1.111469383526   -0.163117769778
 H    0.951007528229   -1.617469383526   -2.313117769778
 H    0.877007528229    0.107530616474   -2.698117769778
 H    3.468007528229   -0.921469383526    0.110882230222
 H    2.408007528229   -1.738469383526   -1.026117769778
 H   -0.624802471771   -0.853285383526   -2.623867769778
