31
0 1 
 C    3.684264646463   -2.343097717385    0.915909566275
 C   -0.072735353537   -1.865097717385    0.808909566275
 C    1.295264646463   -1.598097717385    0.882909566275
 C   -0.519735353537   -3.162097717385    0.641909566275
 C    2.221264646463   -2.626097717385    0.787909566275
 C    0.392264646463   -4.189097717385    0.565909566275
 C    1.762264646463   -3.926097717385    0.636909566275
 H   -0.778735353537   -1.051097717385    0.884909566275
 H    1.626264646463   -0.579097717385    1.029909566275
 H   -1.573735353537   -3.374097717385    0.565909566275
 H    0.055264646463   -5.207097717385    0.448909566275
 H    4.246264646463   -3.277097717385    0.861909566275
 H    3.865264646463   -1.921097717385    1.901909566275
 H    2.464264646463   -4.747097717385    0.579909566275
 H    4.076774646463   -1.647158717385    0.159859566275
 C    1.475264646463    3.481902282615   -1.545090433725
 C   -1.513735353537    1.140902282615   -1.068090433725
 C   -0.291735353537    1.677902282615   -1.523090433725
 C   -2.295735353537    1.877902282615   -0.191090433725
 C    0.137264646463    2.939902282615   -1.114090433725
 C   -1.887735353537    3.137902282615    0.212909566275
 C   -0.667735353537    3.655902282615   -0.233090433725
 O   -3.497735353537    1.389902282615    0.260909566275
 H   -1.835735353537    0.162902282615   -1.395090433725
 H    0.330264646463    1.102902282615   -2.196090433725
 H   -3.772735353537    0.675902282615   -0.317090433725
 H   -2.512735353537    3.710902282615    0.880909566275
 H    1.459264646463    4.572902282615   -1.512090433725
 H    1.676264646463    3.176902282615   -2.569090433725
 H   -0.379735353537    4.643902282615    0.077909566275
 H    2.287134646463    3.099722282615   -0.908840433725
