29
0 1 
 C   -2.350852346711    2.121182547996   -0.936658107709
 C   -0.141852346711    1.300182547996   -0.010658107709
 C   -1.478852346711    1.663182547996    0.202341892291
 C    0.650147653289    0.859182547996    1.058341892291
 C    0.113147653289    0.789182547996    2.340341892291
 C   -2.006852346711    1.581182547996    1.493341892291
 C   -1.211852346711    1.152182547996    2.558341892291
 H    0.284147653289    1.368182547996   -1.001658107709
 H    1.676147653289    0.573182547996    0.883341892291
 H   -1.773852346711    2.811182547996   -1.554658107709
 H   -3.206852346711    2.671182547996   -0.541658107709
 H    0.724147653289    0.446182547996    3.165341892291
 H   -3.037852346711    1.851182547996    1.675341892291
 H   -1.634852346711    1.090182547996    3.551341892291
 H   -2.712290646711    1.292042547996   -1.562668107709
 C    1.370147653289   -2.044817452004   -1.134658107709
 C    1.900147653289   -3.478817452004   -0.947658107709
 C    2.479147653289   -1.083817452004   -1.591658107709
 C    0.220147653289   -2.044817452004   -2.143658107709
 H    0.993147653289   -1.681817452004   -0.179658107709
 H    2.138147653289   -3.880817452004   -1.931658107709
 H    2.932147653289   -1.439817452004   -2.518658107709
 H    2.058147653289   -0.093817452004   -1.761658107709
 H    3.245147653289   -0.978817452004   -0.821658107709
 H   -0.596852346711   -2.672817452004   -1.786658107709
 H   -0.158852346711   -1.031817452004   -2.264658107709
 H    0.567147653289   -2.423817452004   -3.106658107709
 H    1.132470653289   -4.108897452004   -0.474718107709
 H    2.816500653289   -3.483137452004   -0.339158107709
