24
0 1 
 C   -2.228048839763    1.065770561040   -2.917485674784
 C   -1.309048839763    0.107770561040   -3.723485674784
 H   -3.188048839763    0.585770561040   -2.718485674784
 H   -1.776048839763    1.340770561040   -1.968485674784
 H   -2.403048839763    1.977770561040   -3.489485674784
 H   -1.277048839763   -0.844229438960   -3.196485674784
 H   -1.729672839763   -0.082899438960   -4.721845674784
 H   -0.277500839763    0.487780561040   -3.762275674784
 C    1.328951160237    2.532770561040    1.748514325216
 C   -0.247048839763   -0.341229438960   -0.197485674784
 C    0.125951160237    0.955770561040    0.192514325216
 C    0.145951160237   -1.444229438960    0.533514325216
 C    0.889951160237    1.154770561040    1.339514325216
 C    0.864951160237   -1.252229438960    1.718514325216
 C    1.231951160237    0.032770561040    2.111514325216
 O   -0.282048839763   -2.667229438960    0.098514325216
 H   -0.845048839763   -0.487229438960   -1.075485674784
 H   -0.170048839763    1.803770561040   -0.408485674784
 H   -0.829048839763   -2.606229438960   -0.687485674784
 H    1.141951160237   -2.110229438960    2.308514325216
 H    2.100951160237    2.853770561040    1.053514325216
 H    1.795951160237    2.450770561040    2.721514325216
 H    1.806951160237    0.162770561040    3.019514325216
 H    0.558174160237    3.317280561040    1.769484325216
