18
0 1 
 C   -0.950092720475   -0.423019790818   -2.556573066340
 C    0.143907279525   -0.382019790818   -1.551573066340
 O   -0.063092720475   -0.960019790818   -0.488573066340
 O    1.199907279525    0.214980209182   -1.848573066340
 H   -1.104092720475   -1.462019790818   -2.855573066340
 H   -0.677092720475    0.142980209182   -3.449573066340
 H   -1.891922720475   -0.026199790818   -2.149773066340
 C   -0.021092720475    1.083980209182    2.090426933660
 C   -1.453092720475    0.481980209182    2.251426933660
 N    1.020907279525    0.026980209182    1.887426933660
 H   -0.027092720475    1.763980209182    1.232426933660
 H    0.214907279525    1.671980209182    2.982426933660
 H   -1.471092720475   -0.209019790818    3.095426933660
 H   -1.701092720475   -0.071019790818    1.345426933660
 H    0.794907279525   -0.501019790818    1.041426933660
 H    1.939907279525    0.431980209182    1.765426933660
 H    1.056907279525   -0.617019790818    2.665426933660
 H   -2.209172720475    1.264670209182    2.411846933660
