27
1 1 
 C    0.165725287941   -1.591926507441    1.018508987925
 C    0.730725287941   -2.080926507441    2.358508987925
 C    1.343725287941   -1.373926507441    0.022508987925
 C   -0.966274712059   -2.473926507441    0.401508987925
 H   -0.268274712059   -0.619926507441    1.203508987925
 H    1.513725287941   -1.393926507441    2.685508987925
 H    1.213725287941   -3.036926507441    2.171508987925
 H    1.847725287941   -2.323926507441   -0.152491012075
 H    0.958725287941   -1.010926507441   -0.924491012075
 H    2.056725287941   -0.661926507441    0.435508987925
 H   -1.836274712059   -2.484926507441    1.056508987925
 H   -1.262274712059   -2.055926507441   -0.560491012075
 H   -0.601274712059   -3.489926507441    0.252508987925
 H   -0.008464712059   -2.181790507441    3.166858987925
 C    1.523725287941    2.095073492559   -0.232491012075
 C   -0.693274712059    1.343073492559   -0.887491012075
 N    0.546725287941    1.645073492559   -1.201491012075
 N   -1.133274712059    1.538073492559    0.342508987925
 N   -1.492274712059    0.825073492559   -1.782491012075
 H    0.844725287941    1.553073492559   -2.166491012075
 H   -0.500274712059    1.844073492559    1.066508987925
 H   -2.049274712059    1.209073492559    0.627508987925
 H   -1.065274712059    0.394073492559   -2.596491012075
 H   -2.457274712059    0.630073492559   -1.541491012075
 H    2.475725287941    1.651073492559   -0.520491012075
 H    1.301725287941    1.712073492559    0.765508987925
 H    1.663615287941    3.185326492559   -0.190301012075
