22
0 1 
 C    1.349730549376   -1.267860213943    0.691521076393
 C    1.941730549376   -2.522860213943    1.173521076393
 C    1.440730549376   -1.292860213943   -0.819478923607
 H    1.856730549376   -0.398860213943    1.103521076393
 H    0.299730549376   -1.253860213943    0.981521076393
 H    2.954730549376   -2.311860213943    1.520521076393
 H    1.371730549376   -2.935860213943    2.003521076393
 H    0.459730549376   -1.072860213943   -1.244478923607
 H    2.008342549376   -3.238574213943    0.340861076393
 H    1.720512549376   -2.328728213943   -1.061758923607
 H    2.152069549376   -0.534627513943   -1.178758923607
 C   -1.130269450624    1.328139786057   -0.442478923607
 C   -0.978269450624    2.748139786057    0.147521076393
 C   -2.598269450624    1.007139786057   -0.727478923607
 H   -0.564269450624    1.253139786057   -1.370478923607
 H   -0.733269450624    0.604139786057    0.257521076393
 H   -1.638269450624    2.848139786057    1.008521076393
 H   -1.326269450624    3.451139786057   -0.612478923607
 H   -3.219269450624    1.722139786057   -0.189478923607
 H   -2.782269450624    1.183139786057   -1.789478923607
 H    0.042169199376    3.036415786057    0.440101076393
 H   -2.904364450624   -0.021103113943   -0.484538923607
