17
0 1 
 C    2.001589299928    1.330636135163   -1.753520996053
 C    1.321589299928    1.686636135163   -3.083520996053
 H    1.585589299928    0.402636135163   -1.358520996053
 H    3.071589299928    1.199636135163   -1.916520996053
 H    1.857589299928    2.138636135163   -1.035520996053
 H    1.757589299928    2.619636135163   -3.436520996053
 H    0.245469299928    1.824228535163   -2.901750996053
 H    1.491949299928    0.912898135163   -3.846610996053
 C   -0.612410700072    0.761636135163    1.042479003947
 C   -1.386410700072   -1.677363864837    2.197479003947
 S   -0.610410700072   -1.008363864837    0.713479003947
 H   -0.143410700072    0.955636135163    2.005479003947
 H   -0.056410700072    1.278636135163    0.261479003947
 H   -1.636410700072    1.136636135163    1.049479003947
 H   -0.789410700072   -1.383363864837    3.062479003947
 H   -1.364410700072   -2.766363864837    2.134479003947
 H   -2.424050700072   -1.352417864837    2.363969003947
