16
0 1 
 C   -1.781999779106   -0.201458645520   -0.063203718235
 C   -3.179999779106   -0.728458645520   -0.377203718235
 H   -1.809999779106    0.417541354480    0.833796281765
 H   -1.105999779106   -1.041458645520    0.099796281765
 H   -1.413999779106    0.385541354480   -0.905203718235
 H   -3.115999779106   -1.350458645520   -1.265203718235
 H   -3.880879779106    0.102271354480   -0.546505718235
 H   -3.550679779106   -1.360188645520    0.443474281765
 C    1.862000220894    0.219541354480   -0.147203718235
 C    3.101000220894    0.715541354480    0.585796281765
 H    1.968000220894    0.380541354480   -1.221203718235
 H    1.724000220894   -0.840458645520    0.058796281765
 H    0.984000220894    0.756541354480    0.212796281765
 H    2.978000220894    0.502541354480    1.645796281765
 H    3.215490220894    1.799591354480    0.438394281765
 H    3.996150220894    0.186491354480    0.226876281765
