19
0 1 
 C   -0.238155159405    2.119361255062   -0.901447750693
 C    0.384844840595    3.400361255062   -1.424447750693
 H    0.260844840595    1.823361255062    0.020552249307
 H   -1.305155159405    2.255361255062   -0.734447750693
 H   -0.104155159405    1.327361255062   -1.640447750693
 H   -0.012155159405    3.579361255062   -2.421447750693
 H    1.477444840595    3.289441255062   -1.487108750693
 H    0.104044840595    4.249991255062   -0.784693750693
 C   -0.101155159405   -1.303638744938    0.804552249307
 C   -1.192155159405   -2.246638744938    0.316552249307
 C    1.142844840595   -2.057638744938    1.260552249307
 H    0.175844840595   -0.625638744938   -0.004447750693
 H   -0.477155159405   -0.709638744938    1.641552249307
 H   -1.473155159405   -2.913638744938    1.132552249307
 H   -0.841155159405   -2.840638744938   -0.526447750693
 H    1.913844840595   -1.330638744938    1.534552249307
 H    0.890844840595   -2.639638744938    2.151552249307
 H   -2.077065159405   -1.685148744938   -0.017617850693
 H    1.512084840595   -2.729788744938    0.471958249307
