34
0 1 
 C   -0.915552365436   -0.109075300653   -3.213259688570
 C   -2.975552365436    0.570924699347   -1.990259688570
 C   -1.709552365436    0.910924699347   -2.458259688570
 C   -3.722552365436    1.436924699347   -1.241259688570
 C   -3.249552365436    2.672924699347   -0.973259688570
 C   -1.205552365436    2.159924699347   -2.159259688570
 C   -1.996552365436    3.054924699347   -1.410259688570
 H   -3.370552365436   -0.409075300653   -2.212259688570
 H   -4.684552365436    1.127924699347   -0.857259688570
 H   -1.118552365436   -1.094075300653   -2.787259688570
 H    0.145447634564    0.093924699347   -3.066259688570
 H   -3.851552365436    3.360924699347   -0.397259688570
 H   -0.215552365436    2.448924699347   -2.486259688570
 H   -1.613552365436    4.034924699347   -1.157259688570
 H   -1.145632365436   -0.133595300653   -4.288648688570
 C   -0.711552365436   -0.644075300653    0.836740311430
 C   -1.579552365436   -1.810075300653    1.313740311430
 C    0.734447634564   -0.831075300653    1.171740311430
 C    1.463447634564   -1.860075300653    0.604740311430
 C    1.377447634564    0.005924699347    2.075740311430
 C    2.800447634564   -2.066075300653    0.919740311430
 C    2.727447634564   -0.164075300653    2.387740311430
 C    3.433447634564   -1.220075300653    1.804740311430
 O    4.749447634564   -1.395075300653    2.047740311430
 H   -0.799552365436   -0.562075300653   -0.246259688570
 H   -1.068552365436    0.286924699347    1.268740311430
 H   -1.196552365436   -2.702075300653    0.824740311430
 H    0.983447634564   -2.517075300653   -0.108259688570
 H    0.830447634564    0.816924699347    2.537740311430
 H    3.338447634564   -2.882075300653    0.465740311430
 H    3.229447634564    0.504924699347    3.067740311430
 H    5.140447634564   -1.761075300653    1.251740311430
 H   -2.633151365436   -1.654375300653    1.038630311430
 H   -1.510856365436   -1.917095300653    2.406360311430
