33
0 1 
 C   -0.063983604442    2.759469996897   -2.240064181573
 C    0.747016395558    0.421469996897   -1.405064181572
 C    0.907016395558    1.639469996897   -2.151064181572
 C    1.970016395558   -0.297530003103   -1.499064181572
 C    2.168016395558    1.613469996897   -2.659064181572
 C   -0.110983604442   -1.375530003103   -0.041064181572
 C    1.110016395558   -2.058530003103   -0.152064181572
 C   -0.303983604442   -0.135530003103   -0.660064181572
 C    2.164016395558   -1.528530003103   -0.880064181572
 N    2.810016395558    0.461469996897   -2.271064181573
 H   -0.918983604442   -1.851530003103    0.491935818428
 H    1.223016395558   -3.022530003103    0.321935818428
 H   -1.249983604442    0.380469996897   -0.583064181572
 H    3.098016395558   -2.061530003103   -0.982064181572
 H    0.528016395558    3.668469996897   -2.241064181572
 H   -0.640983604442    2.752469996897   -1.314064181572
 H    2.608016395558    2.410469996897   -3.247064181573
 H    3.759016395558    0.222469996897   -2.524064181572
 H   -0.748173604442    2.783909996897   -3.101044181572
 C   -2.485983604442   -0.567530003103    2.842935818428
 C   -4.002983604442   -0.631530003103    3.026935818428
 C   -2.013983604442    0.887469996897    2.874935818428
 C   -1.820983604442   -1.374530003103    3.961935818428
 H   -2.233983604442   -1.008530003103    1.886935818427
 H   -4.227983604442   -0.142530003103    3.976935818428
 H   -4.300983604442   -1.675530003103    3.143935818427
 H   -2.388983604442    1.389469996897    3.766935818428
 H   -0.927983604442    0.907469996897    2.897935818428
 H   -2.341983604442    1.418469996897    1.982935818428
 H   -2.151983604442   -2.411530003103    3.919935818428
 H   -0.741983604442   -1.343530003103    3.837935818428
 H   -2.079983604442   -0.951530003103    4.933935818428
 H   -4.625833604442   -0.162410003103    2.251065818428
