16
0 1 
 C   -1.466130996543    1.512650998874   -0.864627590126
 C   -2.470130996543    0.442650998874   -0.270627590126
 H   -1.860130996543    2.508650998874   -0.678627590126
 H   -0.505130996543    1.413650998874   -0.363627590126
 H   -1.314130996543    1.353650998874   -1.932627590126
 H   -2.097130996543   -0.555349001126   -0.493627590126
 H   -3.489020996543    0.557290998874   -0.669013590126
 H   -2.543620996543    0.542080998874    0.822401409874
 C    1.315869003457   -0.674349001126    0.325372409874
 C    2.625869003457   -1.282349001126    0.804372409874
 H    0.526869003457   -1.427349001126    0.302372409874
 H    1.005869003457    0.111650998874    1.013372409874
 H    1.431869003457   -0.249349001126   -0.673627590126
 H    2.483869003457   -1.716349001126    1.788372409874
 H    2.940249003457   -2.061409001126    0.094285409874
 H    3.355239003457   -0.460549001126    0.855958409874
