15
0 1 
 C    2.402876064664   -1.036650786700    0.066840884359
 C    1.018876064664   -0.723650786700   -0.471159115641
 O    0.647876064664    0.471349213300   -0.477159115641
 O    0.304876064664   -1.647650786700   -0.908159115641
 H    2.412876064664   -1.084650786700    1.132840884359
 H    3.063876064664   -0.223650786700   -0.225159115641
 H    2.813356064664   -1.967130786700   -0.352345115641
 C   -2.502123935336    1.905349213300    0.547840884359
 N   -1.592123935336    0.857349213300    1.072840884359
 H   -2.068123935336   -0.016650786700    1.282840884359
 H   -0.862123935336    0.633349213300    0.393840884359
 H   -1.127123935336    1.159349213300    1.921840884359
 H   -3.091123935336    1.505349213300   -0.284159115641
 H   -1.911123935336    2.745349213300    0.170840884359
 H   -3.179683935336    2.278078213300    1.330137884359
