23
0 1 
 C    3.319677759925   -0.622371689671    0.443230974299
 C    3.604677759925    0.821628310329    0.911230974299
 H    3.214677759925   -1.291371689671    1.297230974299
 H    2.384677759925   -0.651371689671   -0.114769025701
 H    4.126677759925   -0.981371689671   -0.195769025701
 H    2.832677759925    1.103628310329    1.615230974299
 H    4.586717759925    0.853030310329    1.405817974299
 H    3.570497759925    1.514436310329    0.057504074299
 C   -0.181322240075    1.355628310329   -2.012769025701
 C   -0.275322240075    0.602628310329    0.374230974299
 C   -0.773322240075    0.498628310329   -0.924769025701
 C   -0.807322240075   -0.178371689671    1.426230974299
 C   -1.837322240075   -1.080371689671    1.158230974299
 C   -1.807322240075   -0.407371689671   -1.190769025701
 C   -2.337322240075   -1.200371689671   -0.157769025701
 H    0.518677759925    1.303628310329    0.590230974299
 H   -0.411322240075   -0.090371689671    2.428230974299
 H    0.251677759925    2.249628310329   -1.560769025701
 H   -0.979322240075    1.682628310329   -2.680769025701
 H   -2.260322240075   -1.675371689671    1.957230974299
 H   -2.222322240075   -0.484371689671   -2.185769025701
 H   -3.171322240075   -1.856371689671   -0.349769025701
 H    0.595117759925    0.828166310329   -2.586285025701
