16
0 1 
 C   -0.034668051942    1.209030288132   -1.558589953026
 C    1.467331948058    1.290030288132   -2.031589953026
 H   -0.592668051942    2.077030288132   -1.887589953026
 H   -0.501668051942    0.323030288132   -1.983589953026
 H   -0.075668051942    1.168030288132   -0.474589953026
 H    1.466331948058    1.303030288132   -3.119589953026
 H    1.929151948058    2.224881288132   -1.681199953026
 H    2.032081948058    0.396320288132   -1.727709953026
 C   -0.283668051942   -0.895969711868    1.260410046974
 C   -1.146668051942   -1.602969711868    2.331410046974
 H   -0.048668051942    0.119030288132    1.581410046974
 H    0.652331948058   -1.443969711868    1.131410046974
 H   -0.818668051942   -0.882969711868    0.311410046974
 H   -0.668668051942   -1.464969711868    3.294410046974
 H   -2.141828051942   -1.135457711868    2.364340046974
 H   -1.259778051942   -2.685428711868    2.171760046974
