18
0 1 
 C   -2.345493956112   -0.518421396627    0.002451544620
 C   -2.041493956112    0.414578603373    1.150451544620
 O   -2.873493956112    0.616578603373    2.029451544620
 N   -0.858493956112    1.010578603373    1.160451544620
 H   -0.624493956112    1.592578603373    1.962451544620
 H   -0.139493956112    0.820578603373    0.488451544620
 H   -1.440493956112   -0.872421396627   -0.465548455380
 H   -2.906493956112    0.046578603373   -0.744548455380
 H   -2.933663956112   -1.398521396627    0.301583544620
 C    2.378506043888   -1.662421396627   -0.549548455380
 C    2.041506043888   -0.329421396627   -1.108548455380
 O    2.878506043888    0.347578603373   -1.714548455380
 N    0.815506043888    0.075578603373   -0.955548455380
 H    0.608506043888    0.977578603373   -1.370548455380
 H    0.129506043888   -0.610421396627   -0.693548455380
 H    3.449506043888   -1.830421396627   -0.683548455380
 H    1.860506043888   -2.404421396627   -1.139548455380
 H    2.121146043888   -1.761461396627    0.515324544620
