16
0 1 
 C    0.868383070381    0.827470002718    0.933934042702
 C    1.637383070381    1.476470002718    2.065934042702
 H    1.536383070381    0.618470002718    0.097934042702
 H    0.433383070381   -0.109529997282    1.282934042702
 H    0.060383070381    1.477470002718    0.600934042702
 H    0.963383070381    1.680470002718    2.895934042702
 H    2.127343070381    2.399090002718    1.721385042702
 H    2.424123070381    0.793300002718    2.418515042702
 C   -0.555616929619   -0.961529997282   -1.765065957298
 C   -1.957616929619   -1.340529997282   -1.240065957298
 H   -0.546616929619   -0.984529997282   -2.855065957298
 H   -0.293616929619    0.041470002718   -1.433065957298
 H    0.185383070381   -1.666529997282   -1.385065957298
 H   -1.895616929619   -1.428529997282   -0.153065957298
 H   -2.247586929619   -2.317874997282   -1.653239957298
 H   -2.658026929619   -0.525659997282   -1.475456957298
