16
0 1 
 C    0.891883322879   -1.246322916728    1.518645844948
 C    1.121883322879   -2.315322916728    0.450645844948
 H    1.608883322879   -0.432322916728    1.407645844948
 H   -0.110116677121   -0.833322916728    1.404645844948
 H    0.968883322879   -1.670322916728    2.519645844948
 H    0.991883322879   -1.857322916728   -0.529354155052
 H    2.136708322879   -2.735200916728    0.512555844948
 H    0.374343322879   -3.115334916728    0.556305844948
 C   -0.461116677121    1.281677083272   -0.815354155052
 C   -1.548116677121    2.280677083272   -1.151354155052
 H    0.252883322879    1.202677083272   -1.635354155052
 H    0.057883322879    1.591677083272    0.090645844948
 H   -0.906116677121    0.300677083272   -0.643354155052
 H   -2.216116677121    2.361677083272   -0.294354155052
 H   -2.121396677121    1.928121083272   -2.021444155052
 H   -1.091698677121    3.250564083272   -1.398344155052
