28
0 1 
 C   -0.236081191686    1.029443055843    2.182314378328
 C    0.873918808314    0.668443055843   -0.157685621672
 C    0.832918808314    1.201443055843    1.169314378328
 C    2.096918808314    1.089443055843   -0.744685621672
 C    1.988918808314    1.904443055843    1.338314378328
 C   -0.006081191686   -0.133556944157   -0.865685621672
 C    0.347918808314   -0.486556944157   -2.159685621672
 C    1.546918808314   -0.053556944157   -2.731685621672
 C    2.441918808314    0.738443055843   -2.038685621672
 N    2.747918808314    1.841443055843    0.195314378328
 H   -0.924081191686   -0.445556944157   -0.410685621672
 H   -0.314081191686   -1.109556944157   -2.748685621672
 H    1.780918808314   -0.347556944157   -3.747685621672
 H    0.235918808314    1.044443055843    3.158314378328
 H   -0.675081191686    0.041443055843    2.054314378328
 H    2.275918808314    2.422443055843    2.248314378328
 H    3.660918808314    2.270443055843    0.090314378328
 H    3.371918808314    1.066443055843   -2.482685621672
 H   -1.043121191686    1.776893055843    2.180874378328
 C   -2.835081191686   -2.409556944157   -0.538685621672
 C   -2.822081191686   -1.692556944157    0.789314378328
 O   -3.360081191686   -0.591556944157    0.922314378328
 N   -2.235081191686   -2.308556944157    1.812314378328
 H   -3.523081191686   -3.243556944157   -0.420685621672
 H   -1.844081191686   -2.822556944157   -0.729685621672
 H   -2.281081191686   -1.902556944157    2.743314378328
 H   -1.761081191686   -3.193556944157    1.662314378328
 H   -3.125681191686   -1.776096944157   -1.389735621672
