19
1 1 
 C    1.192449786218   -1.023177537343   -1.991059031139
 C    2.480449786218   -0.491177537343   -1.284059031139
 H    1.458449786218   -1.497177537343   -2.940059031139
 H    0.691449786218   -1.757177537343   -1.357059031139
 H    0.502449786218   -0.201177537343   -2.190059031139
 H    2.206449786218   -0.022177537343   -0.339059031139
 H    2.992949786218    0.252222462657   -1.912349031139
 H    3.187079786218   -1.311577537343   -1.089989031139
 C   -0.825550213782    0.514822462657    0.600940968861
 C   -0.753550213782   -0.660177537343    1.591940968861
 N   -1.901550213782    1.497822462657    0.989940968861
 H    0.148449786218    1.018822462657    0.582940968861
 H   -1.030550213782    0.112822462657   -0.397059031139
 H   -0.752550213782   -0.266177537343    2.610940968861
 H    0.170449786218   -1.220177537343    1.426940968861
 H   -1.722550213782    1.875822462657    1.917940968861
 H   -1.943550213782    2.271822462657    0.330940968861
 H   -2.813550213782    1.041822462657    1.012940968861
 H   -1.604680213782   -1.347077537343    1.474400968861
