26
0 1 
 C    2.979053574904    1.013685663731    1.790012606945
 C    0.115053574904   -0.835314336269    0.136012606945
 C    1.238053574904   -0.037314336269    0.312012606945
 C   -0.480946425096   -1.446314336269    1.221012606945
 C    1.776053574904    0.143685663731    1.586012606945
 C    0.043053574904   -1.259314336269    2.493012606945
 C    1.164053574904   -0.457314336269    2.676012606945
 H   -0.290946425096   -0.988314336269   -0.852987393055
 H    1.698053574904    0.434685663731   -0.544987393055
 H   -1.348946425096   -2.075314336269    1.080012606945
 H   -0.420946425096   -1.736314336269    3.345012606945
 H    3.708053574904    0.805685663731    1.008012606945
 H    3.439053574904    0.742685663731    2.742012606945
 H    1.560053574904   -0.309314336269    3.669012606945
 H    2.742369574904    2.087755663731    1.808712606945
 C   -1.646946425096    0.533685663731   -2.895987393055
 C   -1.880946425096    1.005685663731   -4.337987393055
 C   -2.788946425096    0.863685663731   -1.947987393055
 H   -1.485946425096   -0.545314336269   -2.890987393055
 H   -0.755946425096    1.010685663731   -2.487987393055
 H   -2.093946425096    2.076685663731   -4.315987393055
 H   -2.498946425096    0.598685663731   -0.930987393055
 H   -3.002946425096    1.929685663731   -1.983987393055
 H   -3.683946425096    0.299685663731   -2.204987393055
 H   -0.982084125096    0.837635663731   -4.949387393055
 H   -2.745191425096    0.488145663731   -4.779837393055
