26
0 1 
 C   -0.391875941518   -3.193029867855   -0.307949474685
 C    0.207124058482    0.532970132145    1.722050525315
 C    1.302124058482   -0.127029867855    1.200050525315
 C   -1.035875941518   -0.027029867855    1.595050525315
 C    1.118124058482   -1.357029867855    0.513050525315
 C   -1.216875941518   -1.225029867855    0.919050525315
 C   -0.155875941518   -1.900029867855    0.379050525315
 H    0.332124058482    1.470970132145    2.247050525315
 H    2.292124058482    0.294970132145    1.306050525315
 H   -1.892875941518    0.476970132145    2.019050525315
 H    1.974124058482   -1.869029867855    0.095050525315
 H   -2.212875941518   -1.634029867855    0.834050525315
 H    0.085124058482   -3.149029867855   -1.288949474685
 H   -1.458875941518   -3.352029867855   -0.464949474685
 H    0.031674058482   -4.035000867855    0.259230525315
 C    0.212124058482    2.533970132145   -1.236949474685
 C   -1.196875941518    2.158970132145   -1.706949474685
 C    1.202124058482    2.093970132145   -2.279949474685
 H    0.276124058482    3.614970132145   -1.122949474685
 H    0.520124058482    2.108970132145   -0.286949474685
 H   -1.330875941518    1.657970132145   -2.658949474685
 H   -1.755875941518    3.077970132145   -1.800949474685
 H    2.111124058482    2.696970132145   -2.184949474685
 H    1.468124058482    1.044970132145   -2.105949474685
 H   -1.722435941518    1.449616132145   -1.050739474685
 H    0.756384058482    2.208905132145   -3.278999474685
