16
0 1 
 C    0.766664583252   -0.931005366668   -1.216542033465
 C    0.593664583252   -0.287005366668   -2.590542033465
 H    1.406664583252   -0.306005366668   -0.591542033465
 H   -0.206335416748   -1.027005366668   -0.735542033465
 H    1.224664583252   -1.914005366668   -1.299542033465
 H   -0.070335416748   -0.912005366668   -3.189542033465
 H    1.570964583252   -0.195565366668   -3.087052033465
 H    0.125424583252    0.702134633332   -2.479432033465
 C   -0.398335416748    1.244994633332    1.588457966535
 C   -0.963335416748   -0.027005366668    2.216457966535
 H   -0.486335416748    2.078994633332    2.286457966535
 H    0.654664583252    1.097994633332    1.345457966535
 H   -0.926335416748    1.483994633332    0.665457966535
 H   -0.991335416748   -0.819005366668    1.467457966535
 H   -1.977995416748    0.152014633332    2.601697966535
 H   -0.307735416748   -0.341285366668    3.041937966535
