31
0 1 
 C   -0.386885277186    2.215465946776    2.322694125346
 C   -1.007885277186    0.940465946776    1.886694125346
 C   -2.111885277186    1.028465946776    1.048694125346
 C   -0.538885277186   -0.292534053224    2.297694125346
 C   -2.769885277186   -0.080534053224    0.596694125346
 C   -1.202885277186   -1.440534053224    1.819694125346
 C   -2.334885277186   -1.320534053224    0.975694125346
 O   -2.951885277186   -2.449534053224    0.518694125346
 H   -0.603885277186    2.979465946776    1.575694125346
 H    0.694114722814    2.106465946776    2.334694125346
 H   -2.470885277186    2.000465946776    0.739694125346
 H    0.320114722814   -0.375534053224    2.948694125346
 H   -3.636885277186    0.019465946776   -0.035305874654
 H   -0.860885277186   -2.423534053224    2.104694125346
 H   -3.766885277186   -2.189534053224    0.041694125346
 H   -0.757384277186    2.565225946776    3.297574125346
 C    0.964114722814   -1.242534053224   -3.323305874654
 C    2.046114722814    0.278465946776    0.013694125346
 C    1.459114722814   -0.585534053224   -0.923305874654
 C    2.762114722814    1.376465946776   -0.419305874654
 C    1.586114722814   -0.355534053224   -2.288305874654
 C    2.883114722814    1.623465946776   -1.774305874654
 C    2.319114722814    0.747465946776   -2.691305874654
 H    1.949114722814    0.081465946776    1.070694125346
 H    0.896114722814   -1.438534053224   -0.572305874654
 H    3.218114722814    2.044465946776    0.295694125346
 H    3.432114722814    2.488465946776   -2.120305874654
 H    0.636114722814   -0.626534053224   -4.162305874654
 H    0.092114722814   -1.704534053224   -2.861305874654
 H    2.428114722814    0.952465946776   -3.743305874654
 H    1.621688722814   -2.044645053224   -3.689655874654
