27
1 1 
 C    1.218667797672   -0.876381270512   -0.066921750035
 C    2.349667797672   -0.834381270512    0.956078249965
 C    1.269667797672    1.463618729488   -0.873921750035
 N    0.645667797672    0.457618729488   -0.276921750035
 N    2.497667797672    1.319618729488   -1.335921750035
 N    0.671667797672    2.628618729488   -1.000921750035
 H    1.582667797672   -1.287381270512   -1.011921750035
 H    0.440667797672   -1.544381270512    0.305078249965
 H    1.976667797672   -0.357381270512    1.864078249965
 H    3.181667797672   -0.241381270512    0.586078249965
 H   -0.174332202328    0.688618729488    0.288078249965
 H    3.003667797672    0.453618729488   -1.226921750035
 H    2.969667797672    2.117618729488   -1.766921750035
 H   -0.231332202328    2.777618729488   -0.577921750035
 H    1.171667797672    3.400618729488   -1.414921750035
 H    2.714897797672   -1.838055270512    1.219218249965
 C   -2.340332202328   -1.445381270512    0.844078249965
 C   -3.242332202328   -2.425381270512    0.094078249965
 C   -3.110332202328   -0.420381270512    1.667078249965
 H   -1.649332202328   -1.980381270512    1.490078249965
 H   -1.761332202328   -0.911381270512    0.093078249965
 H   -3.938332202328   -1.868381270512   -0.531921750035
 H   -3.716332202328    0.187618729488    0.997078249965
 H   -3.803332202328   -0.912381270512    2.332078249965
 H   -3.809452202328   -3.044602270512    0.804668249965
 H   -2.630092202328   -3.059227270512   -0.564261750035
 H   -2.433952202328    0.239326729488    2.230368249965
