30
0 1 
 C   -1.053647602804    1.752903292280    2.030567003519
 C    0.439352397196   -0.181096707720    0.989567003519
 C    0.069352397196    0.733903292280    2.043567003519
 C    1.595352397196   -0.888096707720    1.423567003519
 C    0.979352397196    0.542903292280    3.040567003519
 C   -0.084647602804   -0.475096707720   -0.277432996481
 C    0.543352397196   -1.447096707720   -1.064432996481
 C    1.686352397196   -2.124096707720   -0.608432996481
 C    2.224352397196   -1.854096707720    0.640567003519
 N    1.892352397196   -0.420096707720    2.675567003519
 H   -0.984647602804    0.011903292280   -0.609432996481
 H    0.101352397196   -1.717096707720   -2.011432996481
 H    2.145352397196   -2.873096707720   -1.241432996481
 H   -0.886647602804    2.436903292280    1.197567003519
 H   -0.980647602804    2.336903292280    2.949567003519
 H    0.993352397196    1.093903292280    3.976567003519
 H    2.671352397196   -0.716096707720    3.255567003519
 H    3.103352397196   -2.370096707720    0.998567003519
 H   -2.074317602804    1.350213292280    1.952607003519
 C   -2.204647602804    0.956903292280   -2.855432996481
 C   -3.634647602804    0.776903292280   -3.313432996481
 C   -1.454647602804    1.891903292280   -3.783432996481
 H   -2.226647602804    1.397903292280   -1.857432996481
 H   -1.702647602804   -0.010096707720   -2.819432996481
 H   -3.654647602804    0.288903292280   -4.291432996481
 H   -4.073647602804    1.770903292280   -3.429432996481
 H   -1.207647602804    1.359903292280   -4.704432996481
 H   -2.076647602804    2.759903292280   -4.013432996481
 H   -4.244487602804    0.209493292280   -2.595002996481
 H   -0.541247602804    2.247273292280   -3.284032996481
