17
0 1 
 C    1.955169754234   -1.619753771857    0.349142708922
 C    0.461169754234   -1.381753771857    0.524142708922
 O   -0.378830245766   -2.223753771857    0.169142708922
 N    0.110169754234   -0.239753771857    1.068142708922
 H   -0.863830245766   -0.059753771857    1.276142708922
 H    0.829169754234    0.471246228143    1.234142708922
 H    2.173169754234   -2.613753771857    0.738142708922
 H    2.527169754234   -0.897753771857    0.932142708922
 H    2.251469754234   -1.557333771857   -0.708359291078
 C   -0.909830245766    2.182246228143   -0.489857291078
 C   -1.187830245766    3.124246228143   -1.613857291078
 H   -1.613830245766    2.335246228143    0.329142708922
 H   -1.005830245766    1.160246228143   -0.858857291078
 H    0.111169754234    2.310246228143   -0.140857291078
 H   -0.381830245766    3.023246228143   -2.340857291078
 H   -1.207320245766    4.154076228143   -1.227761291078
 H   -2.132390245766    2.853036228143   -2.108078291078
