21
1 1 
 C    1.744937464777    1.977236587280   -0.612680676641
 C    2.633937464777    0.939236587280    0.053319323359
 H    2.346937464777    2.767236587280   -1.059680676641
 H    1.167937464777    1.491236587280   -1.398680676641
 H    1.053937464777    2.409236587280    0.110319323359
 H    3.246937464777    0.466236587280   -0.714680676641
 H    1.995937464777    0.158236587280    0.464319323359
 H    3.280697464777    1.310456587280    0.861949323359
 C   -0.745062535223   -1.696763412720   -1.525680676641
 C   -0.919062535223   -0.317763412720    0.523319323359
 N   -0.507062535223   -1.400763412720   -0.096680676641
 N   -1.709062535223    0.543236587280   -0.102680676641
 N   -0.540062535223   -0.119763412720    1.764319323359
 H    0.019937464777   -2.084763412720    0.457319323359
 H   -2.027062535223    0.351236587280   -1.037680676641
 H   -2.028062535223    1.377236587280    0.369319323359
 H    0.115937464777   -0.777763412720    2.202319323359
 H   -0.823062535223    0.707236587280    2.264319323359
 H   -0.608062535223   -0.800763412720   -2.135680676641
 H   -1.754062535223   -2.085763412720   -1.671680676641
 H   -0.016572535223   -2.449803412720   -1.860690676641
