19
0 1 
 C    0.960562306608   -0.712304258965    0.349502385049
 C    1.380562306608   -2.171304258965    0.227502385049
 C    0.730562306608   -0.230304258965    1.780502385049
 H    1.702562306608   -0.067304258965   -0.129497614951
 H    0.057562306608   -0.655304258965   -0.207497614951
 H    0.646562306608   -2.804304258965    0.737502385049
 H    1.585562306608   -0.461304258965    2.416502385049
 H    0.646562306608    0.854695741035    1.733502385049
 H    2.367016306608   -2.321624258965    0.690442385049
 H    1.392825306608   -2.471384258965   -0.830707614951
 H   -0.185909493392   -0.662264258965    2.208862385049
 C   -1.674437693392    0.962695741035   -0.686497614951
 C   -1.322437693392    2.094695741035   -1.642497614951
 H   -1.543437693392   -0.004304258965   -1.167497614951
 H   -1.121437693392    1.092695741035    0.237502385049
 H   -2.730437693392    1.046695741035   -0.421497614951
 H   -1.858437693392    2.992695741035   -1.335497614951
 H   -1.606958693392    1.833108741035   -2.672357614951
 H   -0.242802293392    2.300891741035   -1.599247614951
