20
0 1 
 C   -0.340041217007   -2.834372223166    2.632206177316
 C   -0.368041217007   -1.503372223166    1.939206177316
 O   -0.322041217007   -1.394372223166    0.661206177316
 O   -0.449041217007   -0.556372223166    2.778206177316
 H   -1.312041217007   -2.989372223166    3.107206177316
 H    0.410958782993   -2.827372223166    3.427206177316
 H   -0.152521217007   -3.699232223166    1.978866177316
 C    1.815958782993    1.467627776834   -0.386793822684
 C   -0.090041217007    1.202627776834   -1.880793822684
 N    0.475958782993    0.992627776834   -0.689793822684
 N   -1.314041217007    0.776627776834   -2.124793822684
 N    0.582958782993    1.816627776834   -2.843793822684
 H    0.018958782993    0.352627776834   -0.039793822684
 H    1.863958782993    2.546627776834   -0.553793822684
 H    2.499958782993    0.995627776834   -1.093793822684
 H   -1.815041217007    0.282627776834   -1.400793822684
 H   -1.746041217007    0.929627776834   -3.020793822684
 H    1.517958782993    2.146627776834   -2.676793822684
 H    0.152958782993    1.976627776834   -3.741793822684
 H    2.224118782993    1.276297776834    0.616596177316
