18
-1 1 
 C    1.761283570553   -2.479296821849    0.268071607441
 C    1.182283570553   -1.100296821849    0.587071607441
 O    0.177283570553   -0.998296821849    1.329071607441
 O    1.780283570553   -0.111296821849    0.106071607441
 H    2.617283570553   -2.656296821849    0.920071607441
 H    2.133283570553   -2.486296821849   -0.753928392559
 H    1.041633570553   -3.301963821849    0.391829607441
 C   -1.331716429447    1.551703178151   -0.285928392559
 C   -2.425716429447    0.534703178151   -0.622928392559
 C   -1.154716429447    2.621703178151   -1.360928392559
 H   -1.590716429447    2.038703178151    0.656071607441
 H   -0.386716429447    1.042703178151   -0.153928392559
 H   -3.344716429447    1.089703178151   -0.779928392559
 H   -0.792716429447    2.157703178151   -2.278928392559
 H   -2.114716429447    3.085703178151   -1.566928392559
 H   -2.582956429447   -0.160779821849    0.214674607441
 H   -2.168576429447   -0.035190821849   -1.527969852559
 H   -0.439526429447    3.399023178151   -1.053900392559
