19
0 1 
 C    0.149986022809   -1.426057110367    0.556143398059
 C    1.143986022809   -1.690057110367   -0.566856601941
 C   -1.091013977191   -2.239057110367    0.190143398059
 H   -0.064013977191   -0.365057110367    0.651143398059
 H    0.546986022809   -1.796057110367    1.497143398059
 H    0.900986022809   -1.072057110367   -1.430856601941
 H    2.169986022809   -1.520057110367   -0.246856601941
 H   -1.494013977191   -2.697057110367    1.094143398059
 H    0.952076022809   -2.752877110367   -0.775616601941
 H   -0.697103977191   -3.016287110367   -0.481236601941
 H   -1.872523977191   -1.619937110367   -0.274556601941
 C    0.197986022809    2.249942889633   -0.656856601941
 C   -0.394013977191    3.019942889633    0.511143398059
 H    0.307986022809    2.898942889633   -1.525856601941
 H    1.191986022809    1.888942889633   -0.386856601941
 H   -0.433013977191    1.397942889633   -0.915856601941
 H    0.179986022809    3.933942889633    0.639143398059
 H   -1.443473977191    3.269232889633    0.295523398059
 H   -0.328363977191    2.465862889633    1.459133398059
