16
0 1 
 C   -0.477119477851   -1.736429501146   -1.162168510033
 C    0.711880522149   -1.714429501146   -2.132168510033
 H   -0.233119477851   -1.184429501146   -0.257168510033
 H   -1.364119477851   -1.298429501146   -1.617168510033
 H   -0.737119477851   -2.761429501146   -0.896168510033
 H    0.478880522149   -2.396429501146   -2.947168510033
 H    1.637670522149   -2.051469501146   -1.642968510033
 H    0.853760522149   -0.707679501146   -2.552068510033
 C   -0.388119477851    1.212570498854    1.145831489967
 C    0.157880522149    2.236570498854    2.154831489967
 H   -0.428119477851    0.222570498854    1.601831489967
 H   -1.387119477851    1.497570498854    0.814831489967
 H    0.261880522149    1.181570498854    0.271831489967
 H    0.037880522149    3.226570498854    1.711831489967
 H    1.231080522149    2.079120498854    2.337731489967
 H   -0.405399477851    2.212920498854    3.099331489967
