20
0 1 
 C   -0.425263068582    1.329726829006    1.045432987444
 C    0.599736931418    2.228726829006    1.687432987444
 C   -1.722263068582    2.104726829006    1.244432987444
 H   -0.444263068582    0.337726829006    1.499432987444
 H   -0.241263068582    1.269726829006   -0.022567012556
 H    0.570736931418    2.093726829006    2.769432987444
 H    1.604736931418    2.030726829006    1.316432987444
 H   -2.389263068582    1.921726829006    0.399432987444
 H    0.273176931418    3.248666829006    1.436290987444
 H   -1.402263068582    3.157006829006    1.261831987444
 H   -2.221013068582    1.806206829006    2.178314987444
 C    1.631736931418   -1.049273170994   -1.641567012556
 C    0.354736931418   -1.494273170994   -0.957567012556
 O    0.396736931418   -2.209273170994    0.040432987444
 N   -0.768263068582   -0.971273170994   -1.391567012556
 H    1.429736931418   -0.728273170994   -2.664567012556
 H    2.317736931418   -1.894273170994   -1.679567012556
 H   -1.629263068582   -1.244273170994   -0.941567012556
 H   -0.778263068582   -0.369273170994   -2.201567012556
 H    2.064136931418   -0.216393170994   -1.067690012556
