23
0 1 
 C    3.053846375427    0.243385609595   -1.706093627921
 C   -0.454153624573    0.540385609595   -0.296093627921
 C   -0.225153624573    0.898385609595    1.025906372079
 C    0.609846375427    0.339385609595   -1.163093627921
 C    1.924846375427    0.459385609595   -0.719093627921
 C    1.080846375427    1.062385609595    1.478906372079
 C    2.153846375427    0.861385609595    0.603906372079
 H   -1.466153624573    0.442385609595   -0.661093627921
 H   -1.054153624573    1.042385609595    1.700906372079
 H    0.407846375427    0.080385609595   -2.191093627921
 H    1.254846375427    1.358385609595    2.500906372079
 H    3.310846375427    1.211385609595   -2.137093627921
 H    2.688846375427   -0.390614390405   -2.515093627921
 H    3.155846375427    1.020385609595    0.963906372079
 H    3.961716375427   -0.219522390405   -1.291993627921
 C   -3.445153624573   -1.200614390405    0.594906372079
 C   -3.885153624573   -2.622614390405    0.266906372079
 H   -3.981153624573   -0.840614390405    1.471906372079
 H   -2.378153624573   -1.194614390405    0.809906372079
 H   -3.639153624573   -0.537614390405   -0.247093627921
 H   -3.388153624573   -2.937614390405   -0.647093627921
 H   -4.976225624573   -2.663395390405    0.133116372079
 H   -3.584403624573   -3.294793390405    1.084046372079
