26
0 1 
 C   -1.176681387196    0.108534701396    2.691037918967
 C    0.479318612804   -0.489465298604    0.911037918967
 C   -0.765681387196   -0.685465298604    1.481037918967
 C    0.860318612804   -1.228465298604   -0.201962081033
 C    0.013318612804   -2.177465298604   -0.748962081033
 C   -1.612681387196   -1.637465298604    0.923037918967
 C   -1.219681387196   -2.382465298604   -0.182962081033
 H    1.160318612804    0.233534701396    1.339037918967
 H    1.847318612804   -1.111465298604   -0.608962081033
 H   -2.256681387196    0.045534701396    2.829037918967
 H   -0.934681387196    1.154534701396    2.494037918967
 H    0.325318612804   -2.765465298604   -1.602962081033
 H   -2.583681387196   -1.810465298604    1.362037918967
 H   -1.886681387196   -3.127465298604   -0.595962081033
 H   -0.668691387196   -0.217099298604    3.610767918967
 C    1.481318612804    2.589534701396   -1.138962081033
 C    0.035318612804    3.028534701396   -0.957962081033
 C    1.654318612804    1.847534701396   -2.455962081033
 H    2.119318612804    3.471534701396   -1.185962081033
 H    1.789318612804    1.973534701396   -0.294962081033
 H   -0.524681387196    2.216534701396   -0.487962081033
 H   -0.410681387196    3.220534701396   -1.935962081033
 H    1.066318612804    0.929534701396   -2.439962081033
 H    1.293318612804    2.459534701396   -3.278962081033
 H   -0.059101387196    3.945374701396   -0.357552081033
 H    2.710048612804    1.605954701396   -2.648502081033
