15
0 1 
 C    1.048999965748   -0.192838200344    0.936044401019
 C    1.180999965748   -0.870838200344   -0.411955598981
 O    2.077999965748   -1.682838200344   -0.642955598981
 N    0.280999965748   -0.533838200344   -1.322955598981
 H    0.298999965748   -0.985838200344   -2.223955598981
 H   -0.440000034252    0.139161799656   -1.089955598981
 H    0.309999965748   -0.745838200344    1.517044401019
 H    0.667999965748    0.814161799656    0.774044401019
 H    1.997595965748   -0.152088200344    1.491477401019
 C   -2.209000034252    1.916161799656    1.277044401019
 O   -1.943000034252    1.153161799656    0.107044401019
 H   -2.347000034252    0.286161799656    0.245044401019
 H   -1.460000034252    1.664161799656    2.022044401019
 H   -2.118706134252    2.985351799656    1.034827401019
 H   -3.205790634252    1.668051799656    1.670552401019
