16
0 1 
 C   -0.312723735205   -1.809398165070   -0.724022750837
 C    0.667276264795   -2.741398165070   -1.487022750837
 H   -0.140723735205   -0.774398165070   -1.017022750837
 H   -1.334723735205   -2.073398165070   -0.967022750837
 H   -0.168723735205   -1.913398165070    0.351977249163
 H    0.521276264795   -2.578398165070   -2.554022750837
 H    1.684845764795   -2.450664165070   -1.186979350837
 H    0.504959264795   -3.806563165070   -1.265490750837
 C   -0.402723735205    1.669601834930    0.698977249163
 C    0.055276264795    2.876601834930    1.510977249163
 H    0.055276264795    0.754601834930    1.070977249163
 H   -1.482723735205    1.563601834930    0.793977249163
 H   -0.152723735205    1.809601834930   -0.352022750837
 H   -0.046723735205    2.627601834930    2.567977249163
 H   -0.610723735205    3.711601834930    1.288977249163
 H    1.086109864795    3.184494834930    1.281665249163
