20
0 1 
 C    1.406637382267   -2.591937017409    0.725089095732
 C    0.986637382267   -1.389937017409   -0.150910904268
 O   -0.125362617733   -1.386937017409   -0.698910904268
 N    1.852637382267   -0.361937017409   -0.292910904268
 H    2.235637382267   -2.296937017409    1.369089095732
 H    1.776637382267   -3.373937017409    0.062089095732
 H    1.542637382267    0.439062982591   -0.850910904268
 H    2.762637382267   -0.384937017409    0.140089095732
 H    0.596887382267   -3.008825017409    1.341939095732
 C   -0.848362617733    1.766062982591    0.286089095732
 C   -1.903362617733    2.230062982591    1.281089095732
 C   -1.401362617733    1.689062982591   -1.127910904268
 H   -0.033362617733    2.491062982591    0.304089095732
 H   -0.464362617733    0.800062982591    0.600089095732
 H   -2.263362617733    3.203062982591    0.955089095732
 H   -2.065362617733    0.825062982591   -1.200910904268
 H   -2.000362617733    2.582062982591   -1.306910904268
 H   -1.480032617733    2.310518982591    2.293179095732
 H   -2.755392617733    1.535305982591    1.317879095732
 H   -0.650002617733    1.637930982591   -1.929690904268
