16
0 1 
 C    0.612292413916   -1.658520628130   -0.605583532668
 C    1.124292413916   -3.080520628130   -0.845583532668
 H    0.433292413916   -1.153520628130   -1.554583532668
 H   -0.317707586084   -1.691520628130   -0.041583532668
 H    1.346292413916   -1.112520628130   -0.013583532668
 H    1.366292413916   -3.548520628130    0.103416467332
 H    1.989822413916   -3.049890628130   -1.523758532668
 H    0.313602413916   -3.643940628130   -1.330693532668
 C   -0.335707586084    1.839479371870    0.629416467332
 C   -1.394707586084    2.899479371870    0.822416467332
 H    0.654292413916    2.289479371870    0.593416467332
 H   -0.362707586084    1.144479371870    1.466416467332
 H   -0.511707586084    1.287479371870   -0.294583532668
 H   -1.244707586084    3.389479371870    1.782416467332
 H   -1.334887586084    3.624569371870   -0.002609532668
 H   -2.405337586084    2.465409371870    0.807801467332
