24
0 1 
 C   -0.802178520717    2.228220597321    1.886594708236
 C   -1.068178520717    3.274220597321    2.967594708236
 O   -0.641178520717    2.874220597321    0.637594708236
 H    0.109821479283    1.676220597321    2.121594708236
 H   -1.642178520717    1.532220597321    1.837594708237
 H   -0.242178520717    3.984220597321    2.949594708237
 H    0.308821479283    3.148220597321    0.620594708237
 H   -1.102289520717    2.795910597321    3.957574708236
 H   -1.987527520717    3.833950597321    2.740654708236
 C    2.794821479283   -1.310779402679   -0.344405291763
 C   -0.823178520717   -0.263779402679   -0.939405291763
 C   -1.407178520717   -1.467779402679   -1.331405291763
 C    0.540821479283   -0.215779402679   -0.627405291764
 C    1.324821479283   -1.369779402679   -0.676405291763
 C   -0.629178520717   -2.624779402679   -1.389405291764
 C    0.731821479283   -2.575779402679   -1.061405291763
 H   -1.420178520717    0.637220597321   -0.892405291764
 H   -2.454178520717   -1.509779402679   -1.592405291764
 H    0.985821479283    0.726220597321   -0.338405291763
 H   -1.074178520717   -3.568779402679   -1.668405291763
 H    2.972821479283   -1.908779402679    0.546594708236
 H    3.075821479283   -0.280779402679   -0.114405291763
 H    1.312821479283   -3.485779402679   -1.093405291763
 H    3.445745479283   -1.687139402679   -1.147305291764
