25
0 1 
 C   -2.286284406459   -0.942037203005   -0.748528983876
 C   -1.582284406459   -1.942037203005   -1.649528983876
 O   -2.081284406459   -3.041037203005   -1.882528983876
 N   -0.418284406459   -1.572037203005   -2.167528983876
 H    0.071715593541   -2.232037203005   -2.756528983876
 H   -0.028284406459   -0.674037203005   -1.941528983876
 H   -3.315284406459   -0.864037203005   -1.075528983876
 H   -1.796284406459    0.032962796995   -0.765528983876
 H   -2.380724406459   -1.316157203005    0.281575016124
 C    0.006715593541    3.712962796995    1.675471016124
 C    1.260715593541   -0.244037203005    0.525471016124
 C    1.361715593541    0.807962796995   -0.384528983876
 C    0.745715593541   -0.020037203005    1.803471016124
 C    0.943715593541    2.089962796995   -0.010528983876
 C    0.332715593541    1.266962796995    2.168471016124
 C    0.429715593541    2.326962796995    1.265471016124
 O    1.674715593541   -1.493037203005    0.165471016124
 H    2.078715593541   -1.522037203005   -0.708528983876
 H    1.795715593541    0.644962796995   -1.362528983876
 H    0.672715593541   -0.839037203005    2.505471016124
 H    1.019715593541    2.909962796995   -0.715528983876
 H   -0.064284406459    1.435962796995    3.160471016124
 H    0.681715593541    4.439962796995    1.223471016124
 H    0.128715593541    3.774962796995    2.753471016124
 H   -1.036134406459    3.987549796995    1.458540016124
