26
2 1 
 C   -1.385630523307   -0.340962776380    2.795043086221
 C   -1.621630523307   -0.501962776380    0.346043086221
 N   -1.068630523307   -0.918962776380    1.481043086221
 N   -2.446630523307    0.520037223620    0.328043086221
 N   -1.308630523307   -1.119962776380   -0.770956913779
 H   -0.453630523307   -1.719962776380    1.448043086221
 H   -2.703630523307    0.983037223620    1.181043086221
 H   -2.973630523307    0.698037223620   -0.531956913779
 H   -0.749630523307   -1.959962776380   -0.756956913779
 H   -1.887630523307   -0.921962776380   -1.569956913779
 H   -2.446630523307   -0.498962776380    3.005043086221
 H   -1.186630523307    0.734037223620    2.798043086221
 H   -0.810540523307   -0.810492776380    3.606713086221
 C    1.721369476693   -0.635962776380   -2.469956913779
 C    1.547369476693    0.743037223620   -0.420956913779
 N    1.959369476693   -0.339962776380   -1.040956913779
 N    0.757369476693    1.604037223620   -1.046956913779
 N    1.926369476693    0.941037223620    0.820043086221
 H    2.486369476693   -1.023962776380   -0.486956913779
 H    0.439369476693    1.412037223620   -1.981956913779
 H    0.438369476693    2.438037223620   -0.574956913779
 H    2.582369476693    0.283037223620    1.258043086221
 H    1.643369476693    1.768037223620    1.320043086221
 H    1.858369476693    0.260037223620   -3.079956913779
 H    0.712369476693   -1.024962776380   -2.615956913779
 H    2.449859476693   -1.389002776380   -2.804966913779
