17
0 1 
 C   -1.064123158303   -0.872065271957   -0.240821147716
 C   -2.480123158303   -0.677065271957   -0.784821147716
 O   -0.840123158303   -2.236065271957    0.053178852284
 H   -0.327123158303   -0.518065271957   -0.963821147716
 H   -0.950123158303   -0.303065271957    0.678178852284
 H   -3.179123158303   -1.145065271957   -0.092821147716
 H   -0.538123158303   -2.671065271957   -0.758821147716
 H   -2.576673158303   -1.139455271957   -1.778241147716
 H   -2.726053158303    0.394184728043   -0.828941147716
 C    1.608876841697    1.546934728043    0.342178852284
 C    2.805876841697    2.432934728043    0.675178852284
 H    0.784876841697    2.157934728043   -0.030821147716
 H    1.892876841697    0.832934728043   -0.430821147716
 H    1.279876841697    0.995934728043    1.215178852284
 H    3.609876841697    1.815934728043    1.075178852284
 H    2.523056841697    3.202644728043    1.408368852284
 H    3.175036841697    2.922734728043   -0.237961147716
