16
0 1 
 C   -1.298884273070    1.003701364572   -0.814361632440
 C   -2.755884273070    1.447701364572   -1.014361632440
 H   -1.013884273070    0.300701364572   -1.595361632440
 H   -0.644884273070    1.874701364572   -0.866361632440
 H   -1.172884273070    0.527701364572    0.156638367560
 H   -2.957884273070    2.253701364572   -0.309361632440
 H   -3.417394273070    0.598521364572   -0.787866632440
 H   -2.887394273070    1.834381364572   -2.035726632440
 C    1.360115726930   -0.848298635428    0.922638367560
 C    2.692115726930   -1.603298635428    0.903638367560
 H    1.395115726930    0.017701364572    0.265638367560
 H    0.558115726930   -1.506298635428    0.590638367560
 H    1.144115726930   -0.513298635428    1.934638367560
 H    2.851115726930   -1.994298635428   -0.102361632440
 H    3.524975726930   -0.938738635428    1.176943367560
 H    2.651095726930   -2.452458635428    1.601673367560
