24
1 1 
 C   -1.509480628592   -0.785337318895    0.403903487344
 C   -2.128480628592   -1.736337318895   -0.604096512656
 C   -0.301480628592    1.368662681105    0.378903487344
 N   -0.931480628592    0.391662681105   -0.256096512656
 N   -0.154480628592    1.326662681105    1.687903487344
 N    0.189519371408    2.387662681105   -0.297096512656
 H   -2.293480628592   -0.455337318895    1.088903487344
 H   -0.751480628592   -1.308337318895    0.988903487344
 H   -1.385480628592   -1.979337318895   -1.368096512656
 H   -2.966480628592   -1.221337318895   -1.076096512656
 H   -1.059480628592    0.492662681105   -1.254096512656
 H   -0.541480628592    0.565662681105    2.216903487344
 H    0.380519371408    2.049662681105    2.147903487344
 H    0.076519371408    2.447662681105   -1.295096512656
 H    0.718519371408    3.093662681105    0.194903487344
 H   -2.458632628592   -2.664665318895   -0.115008512656
 C    1.890519371408   -1.389337318895   -0.040096512656
 C    2.779519371408   -1.586337318895   -1.262096512656
 H    2.121519371408   -2.137337318895    0.718903487344
 H    2.052519371408   -0.400337318895    0.390903487344
 H    0.864519371408   -1.506337318895   -0.360096512656
 H    3.802519371408   -1.663337318895   -0.935096512656
 H    2.477427371408   -2.492614318895   -1.807441512656
 H    2.718839371408   -0.710807318895   -1.925245512656
