27
1 1 
 C    1.856358692172   -1.334600172678   -1.479451269672
 C    1.009358692172   -1.579600172678   -2.722451269672
 N    3.146358692172   -2.071600172678   -1.552451269672
 H    2.033358692172   -0.258600172678   -1.371451269672
 H    1.292358692172   -1.668600172678   -0.601451269672
 H    0.923358692172   -2.654600172678   -2.899451269672
 H    1.519358692172   -1.119600172678   -3.564451269672
 H    3.712358692172   -1.765600172678   -2.335451269672
 H    3.692358692172   -1.923600172678   -0.710451269672
 H    2.999358692172   -3.070600172678   -1.636451269672
 H    0.000108692172   -1.154575172678   -2.618716269672
 C   -2.047641307828    3.131399827322   -0.355451269672
 C   -0.321641307828   -0.405600172678    1.361548730328
 C   -1.679641307828   -0.368600172678    1.072548730328
 C    0.482358692172    0.699399827322    1.094548730328
 C   -2.229641307828    0.781399827322    0.516548730328
 C   -0.075641307828    1.845399827322    0.537548730328
 C   -1.435641307828    1.894399827322    0.241548730328
 O    0.226358692172   -1.526600172678    1.905548730328
 H   -2.305641307828   -1.223600172678    1.284548730328
 H   -0.435641307828   -2.210600172678    2.065548730328
 H    1.537358692172    0.662399827322    1.330548730328
 H   -3.290641307828    0.811399827322    0.296548730328
 H    0.553358692172    2.704399827322    0.336548730328
 H   -1.387641307828    3.988399827322   -0.210451269672
 H   -2.961641307828    3.335399827322    0.204548730328
 H   -2.303801307828    3.031100827322   -1.420497269672
