27
0 1 
 C   -0.269169221579    0.909809010753    1.230363491847
 C    0.636830778421    1.900809010753    0.518363491847
 C   -1.420169221579    1.947809010753   -0.625636508153
 C   -2.553169221579   -0.954190989247    1.607363491847
 C   -2.552169221579    0.105809010753    0.508363491847
 O   -3.521169221579    0.219809010753   -0.244636508153
 N   -1.469169221579    0.882809010753    0.381363491847
 H    0.210830778421   -0.066190989247    1.302363491847
 H   -0.522169221579    1.289809010753    2.221363491847
 H    1.207830778421    1.399809010753   -0.263636508153
 H    1.304830778421    2.406809010753    1.212363491847
 H   -2.347169221579    2.498809010753   -0.614636508153
 H   -1.681169221579   -0.853190989247    2.252363491847
 H   -0.073599221579    2.611239010753    0.070513491847
 H   -0.636879221579    2.618269010753   -0.242306508153
 H   -1.244969221579    1.678149010753   -1.677582508153
 H   -3.454649221579   -0.797411989247    2.217893491847
 H   -2.566099221579   -1.964286989247    1.172003491847
 C    3.657830778421   -0.435190989247   -0.060636508153
 C    2.644830778421   -1.274190989247   -0.809636508153
 O    1.484830778421   -1.377190989247   -0.410636508153
 N    3.067830778421   -1.877190989247   -1.903636508153
 H    3.468830778421    0.609809010753   -0.302636508153
 H    4.656830778421   -0.679190989247   -0.414636508153
 H    2.400830778421   -2.406190989247   -2.446636508153
 H    4.047830778421   -1.791190989247   -2.167636508153
 H    3.610400778421   -0.573182989247    1.029643491847
