23
0 1 
 C   -0.522718214596   -2.533774517256   -1.854004468953
 C   -0.962718214596   -3.955774517256   -2.182004468953
 H   -1.058718214596   -2.173774517256   -0.977004468953
 H    0.544281785404   -2.527774517256   -1.639004468953
 H   -0.716718214596   -1.870774517256   -2.696004468953
 H   -0.465718214596   -4.270774517256   -3.096004468953
 H   -2.053790214596   -3.996555517256   -2.315794468953
 H   -0.661968214596   -4.627953517256   -1.364864468953
 C   -1.079718214596    1.627225482744   -1.326004468953
 C   -0.643718214596    0.199225482744    0.720995531047
 C   -0.282718214596    1.282225482744   -0.092004468953
 C    0.129281785404   -0.135774517256    1.831995531047
 C    0.843281785404    2.037225482744    0.236995531047
 C    1.265281785404    0.624225482744    2.148995531047
 C    1.621281785404    1.714225482744    1.346995531047
 H   -1.514718214596   -0.392774517256    0.480995531047
 H   -0.147718214596   -0.976774517256    2.450995531047
 H   -1.526718214596    0.709225482744   -1.707004468953
 H   -0.395718214596    1.987225482744   -2.093004468953
 H    1.129281785404    2.873225482744   -0.385004468953
 H    1.862281785404    0.366225482744    3.009995531047
 H    2.499281785404    2.298225482744    1.585995531047
 H   -1.869530214596    2.374713482744   -1.160294468953
