24
0 1 
 C   -2.191486887801   -0.040644150143   -2.447971099204
 C   -0.351486887801   -1.114644150143    0.744028900796
 C   -1.367486887801   -0.809644150143   -0.159971099204
 C    0.977513112199   -0.942644150143    0.366028900796
 C   -1.078486887801   -0.361644150143   -1.459971099204
 C    1.279513112199   -0.488644150143   -0.915971099204
 C    0.269513112199   -0.197644150143   -1.810971099204
 O    1.990513112199   -1.212644150143    1.225028900796
 H   -0.588486887801   -1.456644150143    1.741028900796
 H   -2.396486887801   -0.907644150143    0.156028900796
 H    1.683513112199   -1.344644150143    2.141028900796
 H    2.313513112199   -0.366644150143   -1.205971099204
 H   -1.751486887801    0.226355849857   -3.409971099204
 H   -2.715486887801    0.840355849857   -2.071971099204
 H    0.528513112199    0.145355849857   -2.803971099204
 H   -2.917936887801   -0.852734150143   -2.598922099204
 C   -0.278486887801    2.085355849857    2.478028900796
 C    0.521513112199    2.618355849857    1.300028900796
 H    0.014513112199    2.598355849857    3.395028900796
 H   -1.345486887801    2.238355849857    2.303028900796
 H   -0.092486887801    1.017355849857    2.598028900796
 H    0.248513112199    2.037355849857    0.415028900796
 H    1.596023112199    2.493585849857    1.499656900796
 H    0.258183112199    3.668055849857    1.103074900796
