19
0 1 
 C    0.257502547479    1.194117866207   -0.248717679025
 C    1.642502547479    1.621117866207   -0.768717679025
 C   -0.743497452521    2.350117866207   -0.125717679025
 H   -0.145497452521    0.451117866207   -0.935717679025
 H    0.361502547479    0.738117866207    0.736282320975
 H    1.981502547479    2.485117866207   -0.199717679025
 H   -0.793497452521    2.840117866207   -1.094717679025
 H    1.619362547479    1.900998566207   -1.832267679025
 H    2.363642547479    0.823122566207   -0.538157679025
 H   -1.750237452521    1.950141666207    0.065322320975
 H   -0.471107452521    3.124239866207    0.606772320975
 C   -0.549497452521   -2.259882133793   -0.182717679025
 C   -0.590497452521   -2.820882133793    1.305282320975
 H   -1.361497452521   -1.542882133793   -0.321717679025
 H    0.403502547479   -1.755882133793   -0.343717679025
 H   -0.673497452521   -3.076882133793   -0.891717679025
 H    0.196502547479   -3.568882133793    1.371282320975
 H   -1.545307452521   -3.310857133793    1.546682320975
 H   -0.381987452521   -2.064779133793    2.076532320975
