29
0 1 
 C    1.546449345231   -1.973788427025    1.203021028612
 C    1.658449345231   -2.901788427025    2.421021028612
 C    1.818449345231   -0.529788427025    1.614021028612
 C    2.545449345231   -2.411788427025    0.137021028612
 H    0.549449345231   -2.052788427025    0.784021028612
 H    2.687449345231   -2.860788427025    2.784021028612
 H    1.476449345231   -3.925788427025    2.084021028612
 H    2.774449345231   -0.447788427025    2.130021028612
 H    1.838449345231    0.101211572975    0.725021028612
 H    1.017449345231   -0.164788427025    2.256021028612
 H    2.343449345231   -3.439788427025   -0.164978971388
 H    2.453449345231   -1.765788427025   -0.735978971388
 H    3.559449345231   -2.341788427025    0.527021028612
 H    0.991539345231   -2.690468427025    3.269881028612
 C   -1.848550654769    3.228211572975    0.406021028612
 C   -1.226550654769   -0.402788427025   -0.509978971388
 C   -0.730550654769   -0.286788427025   -1.809978971388
 C   -1.571550654769    0.741211572975    0.210021028612
 C   -1.433550654769    2.005211572975   -0.359978971388
 C   -0.585550654769    0.977211572975   -2.386978971388
 C   -0.936550654769    2.118211572975   -1.660978971388
 H   -1.363550654769   -1.378788427025   -0.066978971388
 H   -0.461550654769   -1.175788427025   -2.358978971388
 H   -1.944550654769    0.637211572975    1.217021028612
 H   -0.208550654769    1.083211572975   -3.392978971388
 H   -1.118550654769    4.017211572975    0.213021028612
 H   -1.821550654769    3.008211572975    1.473021028612
 H   -0.824550654769    3.091211572975   -2.116978971388
 H   -2.851230654769    3.598641572975    0.146361028612
