23
0 1 
 C   -2.442629768570    1.570396324499   -0.297640083770
 C    0.302370231430   -1.672603675501   -0.801640083770
 C    0.505370231430   -0.494603675501   -1.474640083770
 C   -0.770629768570   -1.817603675501    0.039359916230
 C   -0.394629768570    0.556396324499   -1.303640083770
 C   -1.684629768570   -0.774603675501    0.198359916230
 C   -1.489629768570    0.419396324499   -0.467640083770
 H    1.004370231430   -2.478603675501   -0.940640083770
 H    1.351370231430   -0.393603675501   -2.137640083770
 H   -0.918629768570   -2.749603675501    0.568359916230
 H   -0.226629768570    1.487396324499   -1.827640083770
 H   -2.534629768570   -0.889603675501    0.854359916230
 H   -3.456629768570    1.187396324499   -0.298640083770
 H   -2.349629768570    2.211396324499   -1.175640083770
 H   -2.271242768570    2.177396324499    0.603569916230
 C    2.734370231430    0.567396324499    1.105359916230
 C    2.658370231430    1.166396324499    2.462359916230
 H    3.426370231430    1.150396324499    0.500359916230
 H    3.109370231430   -0.455603675501    1.155359916230
 H    1.745370231430    0.571396324499    0.652359916230
 H    3.689370231430    1.264396324499    2.802359916230
 H    2.191470231430    2.160796324499    2.518669916230
 H    2.165520231430    0.464975324499    3.151639916230
