20
0 1 
 C   -0.892943342073    1.443056737138    0.487276253557
 C   -0.346943342073    2.729056737138    1.111276253557
 C   -2.203943342073    1.664056737138   -0.275723746443
 H   -0.154943342073    1.087056737138   -0.228723746443
 H   -1.038943342073    0.680056737138    1.250276253557
 H   -1.137943342073    3.214056737138    1.684276253557
 H   -2.079943342073    2.500056737138   -0.962723746443
 H   -0.003213342073    3.407459737138    0.316533253557
 H    0.458406657927    2.536175737138    1.835299253557
 H   -2.458693342073    0.787226737138   -0.889140746443
 H   -3.027383342073    1.916760737138    0.408443253557
 C    0.295056657927   -2.589943262862    0.406276253557
 C    0.855056657927   -1.426943262862   -0.400723746443
 O    0.517056657927   -1.238943262862   -1.566723746443
 N    1.718056657927   -0.634943262862    0.214276253557
 H   -0.680943342073   -2.287943262862    0.788276253557
 H    0.950056657927   -2.790943262862    1.256276253557
 H    2.119056657927    0.127056737138   -0.317723746443
 H    2.103056657927   -0.850943262862    1.127276253557
 H    0.184976657927   -3.502923262862   -0.197339746443
