19
-1 1 
 C    2.941803573913    0.602614913615   -0.380493331905
 C    1.574803573913    1.222614913615   -0.149493331905
 O    0.924803573913    0.887614913615    0.864506668095
 O    1.155803573913    2.034614913615   -1.006493331905
 H    3.677803573913    1.381614913615   -0.570493331905
 H    2.874803573913   -0.014385086385   -1.279493331905
 H    3.279183573913   -0.032575086385    0.451799268095
 C   -1.359196426087   -1.083385086385   -0.045493331905
 C   -1.057196426087   -2.474385086385    0.558506668095
 C   -2.625196426087   -1.107385086385   -0.908493331905
 O   -1.495196426087   -0.110385086385    0.982506668095
 H   -0.522196426087   -0.791385086385   -0.681493331905
 H   -0.178196426087   -2.382385086385    1.197506668095
 H   -3.507196426087   -1.311385086385   -0.302493331905
 H   -2.750196426087   -0.132385086385   -1.378493331905
 H   -2.543196426087   -1.851385086385   -1.699493331905
 H   -0.615196426087    0.335614913615    1.013506668095
 H   -0.861496426087   -3.190708086385   -0.253023331905
 H   -1.894136426087   -2.822147086385    1.181881268095
