15
-1 1 
 C   -0.061688831002    1.447648123439   -1.457170857530
 C   -1.193688831002    0.729648123439   -0.711170857530
 O   -1.589688831002    1.155648123439    0.393829142470
 O   -1.661688831002   -0.315351876561   -1.228170857530
 H   -0.316688831002    1.546648123439   -2.512170857530
 H    0.818311168998    0.801648123439   -1.417170857530
 H    0.236481168998    2.419958123439   -1.038000857530
 C    1.665311168998   -1.223351876561    1.003829142470
 C    2.753311168998   -1.729351876561    1.947829142470
 H    2.086311168998   -1.023351876561    0.015829142470
 H    0.877311168998   -1.971351876561    0.929829142470
 H    1.226311168998   -0.305351876561    1.401829142470
 H    2.286311168998   -1.991351876561    2.891829142470
 H    3.505761168998   -0.943051876561    2.107679142470
 H    3.217401168998   -2.637261876561    1.535139142470
