30
0 1 
 C   -2.284183019339    3.901226919239    0.140981871743
 C   -0.671183019339    0.605226919239   -0.897018128257
 C   -0.961183019339    1.773226919239   -0.184018128257
 C   -1.380183019339    0.306226919239   -2.063018128257
 C   -1.946183019339    2.653226919239   -0.639018128257
 C   -2.369183019339    1.177226919239   -2.516018128257
 C   -2.652183019339    2.342226919239   -1.804018128257
 H    0.095816980661   -0.069773080761   -0.545018128257
 H   -0.417183019339    1.991226919239    0.722981871743
 H   -1.162183019339   -0.600773080761   -2.611018128257
 H   -2.928183019339    0.933226919239   -3.406018128257
 H   -2.248183019339    3.661226919239    1.204981871743
 H   -3.310183019339    4.196226919239   -0.087018128257
 H   -3.427183019339    3.006226919239   -2.160018128257
 H   -1.610292019339    4.749166919239   -0.051044128257
 C    0.379816980661   -1.586773080761    3.104981871743
 C    2.062816980661   -0.719773080761    1.454981871743
 C    1.213816980661   -1.745773080761    1.866981871743
 C    2.867816980661   -0.879773080761    0.332981871743
 C    1.178816980661   -2.937773080761    1.145981871743
 C    2.829816980661   -2.072773080761   -0.384018128257
 C    1.980816980661   -3.103773080761    0.019981871743
 H    2.096816980661    0.206226919239    2.007981871743
 H    3.521816980661   -0.080773080761    0.012981871743
 H   -0.570183019339   -2.105773080761    2.972981871743
 H    0.150816980661   -0.528773080761    3.244981871743
 H    0.527816980661   -3.738773080761    1.459981871743
 H    3.472816980661   -2.200773080761   -1.243018128257
 H    1.957816980661   -4.031773080761   -0.531018128257
 H    0.879841980661   -1.959283080761    4.011187871743
