26
-1 1 
 C   -2.040454920257    3.127398307918   -0.735838596685
 C   -0.836454920257    1.306398307918    0.506161403315
 C   -1.992454920257    1.752398307918   -0.128838596685
 C   -0.783454920257    0.039398307918    1.078161403315
 C   -3.106454920257    0.918398307918   -0.168838596685
 C   -1.901454920257   -0.789601692082    1.026161403315
 C   -3.063454920257   -0.350601692082    0.401161403315
 O   -1.848454920257   -2.027601692082    1.590161403315
 H    0.034545079743    1.948398307918    0.555161403315
 H    0.115545079743   -0.304601692082    1.565161403315
 H   -2.789454920257    3.156398307918   -1.529838596685
 H   -1.069454920257    3.325398307918   -1.187838596685
 H   -4.017454920257    1.261398307918   -0.641838596685
 H   -3.930454920257   -0.990601692082    0.365161403315
 H   -2.697454920257   -2.526601692082    1.581161403315
 H   -2.255354920257    3.908398307918    0.008380403315
 C    2.300545079743    0.176398307918   -0.989838596685
 C    2.502545079743    0.024398307918   -2.501838596685
 C    3.023545079743   -0.897601692082   -0.186838596685
 O    3.242545079743   -2.010601692082   -0.713838596685
 O    3.355545079743   -0.631601692082    0.989161403315
 H    2.603545079743    1.175398307918   -0.668838596685
 H    1.238545079743    0.063398307918   -0.782838596685
 H    2.572545079743   -1.031601692082   -2.760838596685
 H    3.419474079743    0.534807307918   -2.831571596685
 H    1.616380079743    0.403668307918   -3.031806596685
