18
-1 1 
 C   -1.951498250614   -1.462184252693   -1.215698083400
 C   -0.568498250614   -0.892184252693   -1.511698083400
 O    0.461501749386   -1.461184252693   -1.087698083400
 O   -0.521498250614    0.166815747307   -2.176698083400
 H   -2.521498250614   -1.531184252693   -2.144698083400
 H   -2.468498250614   -0.763184252693   -0.555698083400
 H   -1.934239250614   -2.448080952693   -0.728143083400
 C    0.682501749386    0.897815747307    1.549301916600
 C    1.701501749386    0.422815747307    2.582301916600
 C    0.199501749386    2.311815747307    1.862301916600
 H    1.146501749386    0.903815747307    0.561301916600
 H   -0.182498250614    0.233815747307    1.524301916600
 H    1.243501749386    0.347815747307    3.568301916600
 H    2.514501749386    1.148815747307    2.636301916600
 H    1.059501749386    2.989815747307    1.842301916600
 H   -0.483498250614    2.625815747307    1.065301916600
 H    2.128984749386   -0.552943852693    2.308162916600
 H   -0.306759250614    2.370201747307    2.837130916600
