16
0 1 
 C   -0.089004000547    0.874816884505   -1.186862266391
 C   -0.214004000547    1.554816884505   -2.560862266391
 H   -0.632004000547   -0.069183115495   -1.168862266391
 H    0.959995999453    0.657816884505   -0.987862266391
 H   -0.462004000547    1.533816884505   -0.401862266391
 H   -0.035004000547    0.819816884505   -3.342862266391
 H    0.574995999453    2.302816884505   -2.621862266391
 H   -1.187334000547    2.045780884505   -2.707792266391
 C   -0.257004000547   -0.585183115495    2.058137733609
 C    0.550995999453   -1.849183115495    1.694137733609
 H   -0.626004000547   -0.656183115495    3.083137733609
 H    0.364995999453    0.304816884505    1.969137733609
 H   -1.102004000547   -0.448183115495    1.382137733609
 H    0.836995999453   -1.765183115495    0.643137733609
 H   -0.055914000547   -2.759910115495    1.804747733609
 H    1.470635999453   -1.909874115495    2.294617733609
