16
0 1 
 C   -2.088730529526   -1.026759453006   -0.098062812532
 C   -1.875730529526    0.489240546994    0.015937187468
 H   -2.664730529526   -1.292759453006   -0.980062812532
 H   -1.127730529526   -1.533759453006   -0.165062812532
 H   -2.592730529526   -1.413759453006    0.786937187468
 H   -1.393730529526    0.838240546994   -0.897062812532
 H   -1.185730529526    0.678240546994    0.839937187468
 H   -2.788170529526    1.079340546994    0.186928187468
 C    1.433269470474    0.447240546994   -0.490062812532
 C    2.525269470474    0.092240546994    0.569937187468
 H    1.844269470474    0.372240546994   -1.498062812532
 H    0.631269470474   -0.274759453006   -0.410062812532
 H    1.042269470474    1.452240546994   -0.323062812532
 H    2.179269470474    0.440240546994    1.543937187468
 H    3.447719470474    0.625510546994    0.296593187468
 H    2.678539470474   -0.994379453006    0.645849187468
