16
0 1 
 C   -1.777348091926    0.224930184408    0.028564640554
 C   -3.061348091926    0.185930184408    0.847564640554
 H   -1.121348091926   -0.585069815592    0.343564640554
 H   -2.015348091926    0.087930184408   -1.026435359446
 H   -1.269348091926    1.180930184408    0.159564640554
 H   -3.553348091926   -0.753069815592    0.605564640554
 H   -2.839481591926    0.174550184408    1.924897640554
 H   -3.744739091926    1.001710184408    0.569199640554
 C    1.703651908074   -0.040069815592   -0.237435359446
 C    3.143651908074   -0.353069815592   -0.636435359446
 H    1.610651908074    0.990930184408    0.104564640554
 H    0.999651908074   -0.249069815592   -1.038435359446
 H    1.379651908074   -0.695069815592    0.561564640554
 H    3.155651908074   -1.351069815592   -1.077435359446
 H    3.797113908074   -0.366549815592    0.248327640554
 H    3.498401908074    0.352850184408   -1.401834359446
