23
0 1 
 C    0.229153943911   -1.249614873313   -1.083485458232
 C    1.180153943911   -1.172614873313   -2.262485458232
 S    0.505153943911   -2.708614873313   -0.070485458232
 H    0.513153943911   -0.404614873313   -0.472485458232
 H   -0.814846056089   -1.178614873313   -1.396485458232
 H    2.208153943911   -1.205614873313   -1.896485458232
 H   -0.293846056089   -2.359614873313    0.948514541768
 H    0.982643943911   -0.244300873313   -2.818565458232
 H    0.993783943911   -2.009440873313   -2.951675458232
 C   -0.624846056089    1.755385126687    0.767514541768
 C   -2.036846056089    2.149385126687    1.104514541768
 C   -0.136846056089    2.702385126687   -0.349485458232
 C    0.283153943911    1.808385126687    1.991514541768
 H   -0.704846056089    0.743385126687    0.420514541768
 H   -2.664846056089    1.931385126687    0.239514541768
 H   -2.007846056089    3.239385126687    1.163514541768
 H    0.004153943911    3.709385126687    0.041514541768
 H    0.819153943911    2.344385126687   -0.734485458232
 H   -0.850846056089    2.731385126687   -1.170485458232
 H    0.000153943911    1.034385126687    2.705514541768
 H    1.314153943911    1.627385126687    1.685514541768
 H    0.221153943911    2.788385126687    2.465514541768
 H   -2.574986056089    1.819051126687    2.005234541768
