23
0 1 
 C    2.723937678503   -1.254182107007   -0.204957295523
 C   -0.689062321497    0.790817892993    1.604042704477
 C   -0.392062321497   -0.523182107007    1.931042704477
 C    0.110937678503    1.435817892993    0.669042704477
 C    0.712937678503   -1.167182107007    1.321042704477
 C    1.227937678503    0.782817892993    0.046042704477
 C    1.531937678503   -0.529182107007    0.388042704477
 H   -1.524062321497    1.303817892993    2.063042704477
 H   -1.008062321497   -1.037182107007    2.654042704477
 H   -0.151062321497    2.434817892993    0.438042704477
 H    0.954937678503   -2.189182107007    1.571042704477
 H    1.839937678503    1.294817892993   -0.687957295523
 H    3.317937678503   -1.629182107007    0.630042704477
 H    3.310937678503   -0.518182107007   -0.754957295523
 H    2.458297678503   -2.075382107007   -0.886907295523
 C   -2.047062321497    0.432817892993   -1.791957295523
 C   -2.742062321497    0.097817892993   -3.143957295523
 H   -1.343062321497   -0.352182107007   -1.525957295523
 H   -1.510062321497    1.378817892993   -1.870957295523
 H   -2.796062321497    0.514817892993   -1.002957295523
 H   -2.023062321497    0.035817892993   -3.964957295523
 H   -3.277442321497   -0.859082107007   -3.055677295523
 H   -3.457682321497    0.907317892993   -3.350247295523
