27
0 1 
 C    0.586085272579   -1.736569763591   -1.207324570627
 C    0.753085272579   -1.848569763591   -2.736324570627
 C   -0.055914727421   -0.474569763591   -0.722324570627
 C    0.710085272579    0.675430236409   -0.550324570627
 C   -1.417914727421   -0.418569763591   -0.461324570627
 C    0.127085272579    1.861430236409   -0.115324570627
 C   -2.004914727421    0.771430236409   -0.026324570627
 C   -1.221914727421    1.918430236409    0.115675429373
 O   -1.751914727421    3.110430236409    0.522675429373
 H    0.001085272579   -2.585569763591   -0.853324570627
 H    1.572085272579   -1.814569763591   -0.744324570627
 H    1.387085272579   -1.039569763591   -3.098324570627
 H    1.771085272579    0.620430236409   -0.729324570627
 H   -2.028914727421   -1.301569763591   -0.588324570627
 H    0.739085272579    2.741430236409    0.019675429373
 H   -3.060914727421    0.818430236409    0.192675429373
 H   -1.081914727421    3.798430236409    0.588675429373
 H   -0.222354727421   -1.847819763591   -3.244760570627
 H    1.241935272579   -2.815289763591   -2.927326570627
 C    1.231085272579   -2.133569763591    2.337675429373
 C    2.634085272579   -1.550569763591    2.429675429373
 H    0.864085272579   -2.450569763591    3.310675429373
 H    0.554085272579   -1.369569763591    1.956675429373
 H    1.222085272579   -2.981569763591    1.652675429373
 H    2.631085272579   -0.704569763591    3.117675429373
 H    2.883085272579   -1.176569763591    1.437675429373
 H    3.366165272579   -2.301419763591    2.761785429373
