35
0 1 
 C    0.996562412028   -2.369927958771   -3.203353867739
 C    0.529562412028    1.083072041229   -1.625353867739
 C   -0.631437587972    1.511072041229   -2.266353867739
 C    1.061562412028   -0.170927958771   -1.926353867739
 C    0.426562412028   -1.012927958771   -2.845353867739
 C   -1.268437587972    0.681072041229   -3.177353867739
 C   -0.728437587972   -0.558927958771   -3.474353867739
 O   -1.167437587972    2.735072041229   -2.031353867739
 H    0.999562412028    1.723072041229   -0.894353867739
 H    1.945562412028   -0.509927958771   -1.407353867739
 H   -2.217437587972    0.911072041229   -3.614353867739
 H   -2.080437587972    2.796072041229   -2.312353867739
 H    0.193562412028   -3.104927958771   -3.158353867739
 H    1.750562412028   -2.652927958771   -2.468353867739
 H   -1.232437587972   -1.188927958771   -4.178353867739
 H    1.443150412028   -2.399797958771   -4.208173867739
 C   -2.015437587972   -0.281927958771    0.898646132261
 C   -2.836437587972   -1.502927958771    1.308646132261
 C   -0.721437587972   -0.153927958771    1.660646132261
 C    0.365562412028   -0.974927958771    1.356646132261
 C   -0.600437587972    0.764072041229    2.702646132261
 C    1.553562412028   -0.874927958771    2.068646132261
 C    0.583562412028    0.858072041229    3.433646132261
 C    1.661562412028    0.038072041229    3.105646132261
 O    2.841562412028    0.132072041229    3.781646132261
 H   -1.816437587972   -0.315927958771   -0.173353867739
 H   -2.608437587972    0.597072041229    1.114646132261
 H   -2.380437587972   -2.391927958771    0.869646132261
 H    0.283562412028   -1.688927958771    0.547646132261
 H   -1.427437587972    1.417072041229    2.944646132261
 H    2.397562412028   -1.495927958771    1.814646132261
 H    0.677562412028    1.579072041229    4.233646132261
 H    3.518562412028   -0.432927958771    3.393646132261
 H   -3.864759587972   -1.400097958771    0.931846132261
 H   -2.819906587972   -1.630147958771    2.401136132261
