16
0 1 
 C   -0.795187492684    0.568228365620    1.582824902117
 C   -0.518187492684    2.037228365620    1.289824902117
 H   -1.216187492684    0.099228365620    0.697824902117
 H    0.145812507316    0.071228365620    1.817824902117
 H   -1.457187492684    0.470228365620    2.443824902117
 H   -0.066187492684    2.141228365620    0.301824902117
 H    0.186812507316    2.397228365620    2.039824902117
 H   -1.456025492684    2.609278365620    1.346597902117
 C    0.990812507316   -0.973771634380   -0.836175097883
 C    0.317812507316   -1.631771634380   -2.042175097883
 H    2.074812507316   -0.989771634380   -0.954175097883
 H    0.666812507316    0.055228365620   -0.716175097883
 H    0.728812507316   -1.493771634380    0.084824902117
 H   -0.763187492684   -1.574771634380   -1.916175097883
 H    0.618006507316   -2.687481634380   -2.115428237883
 H    0.594263507316   -1.096821634380   -2.962720197883
