24
0 1 
 C    1.193876967427   -2.013215107440   -1.798653306903
 C    1.042876967427   -3.425215107440   -1.264653306903
 H    1.270876967427   -2.008215107440   -2.884653306903
 H    0.310876967427   -1.433215107440   -1.527653306903
 H    2.074876967427   -1.537215107440   -1.365653306903
 H    0.180876967427   -3.879215107440   -1.745653306903
 H    1.925616967427   -4.047437107440   -1.473496306903
 H    0.839606967427   -3.414441107440   -0.183651306903
 C   -3.197123032573    0.834784892560   -0.093653306903
 C    0.572876967427    1.250784892560   -0.527653306903
 C   -0.799123032573    1.277784892560   -0.777653306903
 C    1.042876967427    0.727784892560    0.666346693097
 C   -1.706123032573    0.785784892560    0.160346693097
 C    0.134876967427    0.237784892560    1.611346693097
 C   -1.229123032573    0.273784892560    1.360346693097
 O    2.364876967427    0.650784892560    0.982346693097
 H    1.266876967427    1.623784892560   -1.263653306903
 H   -1.160123032573    1.670784892560   -1.719653306903
 H    2.930876967427    1.134784892560    0.363346693097
 H    0.517876967427   -0.182215107440    2.526346693097
 H   -3.726123032573    0.313784892560    0.704346693097
 H   -3.386123032573    0.292784892560   -1.019653306903
 H   -1.918123032573   -0.119215107440    2.097346693097
 H   -3.605203032573    1.851394892560   -0.193518306903
