27
0 1 
 C    2.054699897161    1.273984827526    0.906585274336
 C    3.358699897161    1.393984827526    0.113585274336
 C    1.102699897161    0.195984827526    0.440585274336
 C    0.639699897161    0.167984827526   -0.879414725664
 C    0.612699897161   -0.752015172474    1.341585274336
 C   -0.286300102839   -0.801015172474   -1.300414725664
 C   -0.292300102839   -1.729015172474    0.930585274336
 C   -0.747300102839   -1.761015172474   -0.391414725664
 O   -1.651300102839   -2.718015172474   -0.785414725664
 H    2.283699897161    1.142984827526    1.965585274336
 H    1.514699897161    2.216984827526    0.821585274336
 H    3.123699897161    1.273984827526   -0.943414725664
 H    0.981699897161    0.908984827526   -1.591414725664
 H    0.920699897161   -0.727015172474    2.378585274336
 H   -0.630300102839   -0.810015172474   -2.324414725664
 H   -0.671300102839   -2.444015172474    1.641585274336
 H   -1.908300102839   -2.609015172474   -1.720414725664
 H    4.068299897161    0.606464827526    0.407315274336
 H    3.771089897161    2.407774827526    0.223845274336
 C   -1.640300102839    2.122984827526    0.490585274336
 C   -2.653300102839    2.248984827526   -0.640414725664
 H   -1.954300102839    2.717984827526    1.344585274336
 H   -1.542300102839    1.086984827526    0.806585274336
 H   -0.657300102839    2.453984827526    0.168585274336
 H   -2.295300102839    1.664984827526   -1.490414725664
 H   -2.765790102839    3.294834827526   -0.962214725664
 H   -3.619430102839    1.840764827526   -0.308824725664
