23
-1 1 
 C    4.624728941990    0.178141213115    0.198085878367
 C    3.463728941990    1.084141213115   -0.152914121633
 O    2.317728941990    0.600141213115   -0.144914121633
 O    3.714728941990    2.273141213115   -0.450914121633
 H    5.246728941990    0.641141213115    0.967085878367
 H    5.235728941990    0.069141213115   -0.698914121633
 H    4.285878941990   -0.814668786885    0.529025878367
 C   -3.890271058010   -2.488858786885    1.122085878367
 C   -0.669271058010   -0.493858786885    0.669085878367
 C   -1.003271058010    0.337141213115   -0.398914121633
 C   -1.599271058010   -1.418858786885    1.144085878367
 C   -2.867271058010   -1.524858786885    0.562085878367
 C   -2.261271058010    0.241141213115   -0.992914121633
 C   -3.188271058010   -0.684858786885   -0.508914121633
 O   -0.115271058010    1.257141213115   -0.853914121633
 H    0.306728941990   -0.409858786885    1.123085878367
 H   -1.337271058010   -2.034858786885    1.991085878367
 H   -2.521271058010    0.884141213115   -1.815914121633
 H   -0.480271058010    1.777141213115   -1.573914121633
 H   -4.810271058010   -1.936858786885    1.291085878367
 H   -3.546271058010   -2.833858786885    2.098085878367
 H   -4.174271058010   -0.720858786885   -0.953914121633
 H   -4.118791058010   -3.369168786885    0.503355878367
