15
0 1 
 C   -1.927418090403   -1.792348779982    0.902119291376
 C   -0.967418090403   -0.706348779982    0.535119291376
 O   -1.228418090403    0.494651220018    0.722119291376
 O    0.110581909597   -1.050348779982    0.018119291376
 H   -1.421418090403   -2.556348779982    1.490119291376
 H   -2.258418090403   -2.259348779982   -0.027880708624
 H   -2.805026090403   -1.409338779982    1.443519291376
 C    2.599581909597    1.597651220018   -0.788880708624
 N    1.179581909597    1.241651220018   -1.183880708624
 H    0.792581909597    0.504651220018   -0.589880708624
 H    0.561581909597    2.051651220018   -1.127880708624
 H    1.137581909597    0.858651220018   -2.129880708624
 H    2.658581909597    1.738651220018    0.293119291376
 H    2.879581909597    2.539651220018   -1.271880708624
 H    3.321841909597    0.827771220018   -1.098110708624
