13
-1 1 
 C   -2.778542412018    0.271018450015    1.633193029978
 O   -2.217542412018    0.870018450015    0.469193029978
 H   -1.336542412018    0.461018450015    0.324193029978
 H   -2.726542412018   -0.791981549985    1.699193029978
 H   -2.271372412018    0.680798450015    2.519113029978
 H   -3.862402412018    0.457688450015    1.653452029978
 C    1.296457587982    0.055018450015   -1.953806970022
 C    1.338457587982   -0.336981549985   -0.488806970022
 O    0.287457587982   -0.250981549985    0.192193029978
 O    2.434457587982   -0.689981549985   -0.005806970022
 H    1.438457587982   -0.836981549985   -2.567806970022
 H    2.115457587982    0.748018450015   -2.161806970022
 H    0.348327587982    0.537698450015   -2.233216970022
