24
0 1 
 C   -0.388825817476   -1.901373393505   -1.396136209587
 C    0.817174182524    0.030626606495   -0.331136209587
 C    0.149174182524   -0.493373393505   -1.426136209587
 C    1.318174182524    1.325626606495   -0.359136209587
 C    0.006174182524    0.297626606495   -2.564136209587
 C    1.155174182524    2.112626606495   -1.485136209587
 C    0.506174182524    1.595626606495   -2.592136209587
 H    0.973174182524   -0.575373393505    0.549863790413
 H    1.835174182524    1.722626606495    0.501863790413
 H    0.041174182524   -2.420373393505   -0.542136209587
 H   -0.063825817476   -2.425373393505   -2.293136209587
 H   -0.466825817476   -0.097373393505   -3.451136209587
 H    1.520174182524    3.126626606495   -1.494136209587
 H    0.376174182524    2.201626606495   -3.475136209587
 H   -1.482427817476   -1.966588393505   -1.297236209587
 C   -1.286825817476   -0.574373393505    2.477863790413
 C   -0.771825817476    0.327626606495    3.603863790413
 O   -0.876825817476   -1.916373393505    2.665863790413
 H   -2.377825817476   -0.534373393505    2.467863790413
 H   -0.933825817476   -0.201373393505    1.520863790413
 H   -1.036825817476    1.355626606495    3.351863790413
 H   -1.425825817476   -2.493373393505    2.096863790413
 H    0.321608482524    0.248227606495    3.693853790413
 H   -1.278863817476    0.079516606495    4.547983790413
