20
0 1 
 C   -1.144645250696   -0.008798061562    0.736068668375
 C   -0.264645250696    0.808201938438    1.728068668375
 C   -0.176645250696   -2.515798061562    1.510068668375
 S   -0.319645250696   -1.458798061562    0.037068668375
 H   -2.057645250696   -0.330798061562    1.238068668375
 H   -1.427645250696    0.642201938438   -0.092931331625
 H    0.712354749304    0.987201938438    1.280068668375
 H   -0.120645250696    0.228201938438    2.639068668375
 H   -1.148645250696   -2.613798061562    1.992068668375
 H    0.174354749304   -3.504798061562    1.222068668375
 H    0.532354749304   -2.075798061562    2.210068668375
 H   -0.733945250696    1.773321938438    1.969527668375
 C    1.297354749304    2.145201938438   -1.344931331625
 C    0.922354749304    2.661201938438   -2.741931331625
 H    0.426354749304    2.163201938438   -0.697931331625
 H    1.637354749304    1.112201938438   -1.424931331625
 H    2.091354749304    2.755201938438   -0.912931331625
 H    0.063354749304    2.101201938438   -3.109931331625
 H    0.688224749304    3.735321938438   -2.703750331625
 H    1.756954749304    2.513581938438   -3.443109331625
