16
-1 1 
 C   -0.483654356930    2.557557347572    0.484527867798
 C    0.937345643070    2.096557347572    0.181527867798
 O    1.150345643070    0.873557347572    0.032527867798
 O    1.845345643070    2.954557347572    0.095527867798
 H   -0.507654356930    3.038557347572    1.465527867798
 H   -1.162654356930    1.702557347572    0.530527867798
 H   -0.859354356930    3.271458347572   -0.263265132202
 C   -1.565654356930   -2.893442652428   -1.201472132202
 C   -0.783654356930   -2.106442652428   -0.175472132202
 O    0.424345643070   -2.278442652428   -0.028472132202
 N   -1.471654356930   -1.253442652428    0.564527867798
 H   -2.450654356930   -2.329442652428   -1.502472132202
 H   -1.898654356930   -3.815442652428   -0.723472132202
 H   -0.953654356930   -0.662442652428    1.196527867798
 H   -2.461654356930   -1.133442652428    0.428527867798
 H   -0.965714356930   -3.133419652428   -2.091686132202
