16
0 1 
 C    0.259724712918    1.577227896517   -1.087693367755
 C    0.050724712918    1.174227896517   -2.538693367755
 H    0.695724712918    2.577227896517   -1.039693367755
 H   -0.699275287082    1.580227896517   -0.571693367755
 H    0.924724712918    0.864227896517   -0.596693367755
 H   -0.543275287082    1.963227896517   -2.996693367755
 H    1.021044712918    1.096945896517   -3.051043367755
 H   -0.523525287082    0.237900896517   -2.598073367755
 C   -0.683275287082   -0.844772103483    1.644306632245
 C    0.379724712918   -1.907772103483    1.981306632245
 H   -0.202275287082    0.116227896517    1.462306632245
 H   -1.227275287082   -1.143772103483    0.746306632245
 H   -1.405275287082   -0.729772103483    2.451306632245
 H   -0.126275287082   -2.825772103483    2.254306632245
 H    0.992804712918   -1.610174303483    2.844766632245
 H    1.010734712918   -2.113536103483    1.104106632245
