26
0 1 
 C    0.446838531999    2.291470820889    1.978931246637
 C   -0.474161468001    3.501470820889    2.035931246637
 H    1.444838531999    2.565470820889    2.319931246637
 H    0.053838531999    1.503470820889    2.620931246637
 H    0.509838531999    1.909470820889    0.959931246637
 H   -1.453161468001    3.209470820889    1.663931246637
 H   -0.087819468001    4.334250820889    1.429947246637
 H   -0.559862468001    3.830380820889    3.082103246637
 C   -1.798161468001   -0.100529179111    0.069931246637
 C   -2.841161468001   -1.215529179111   -0.090068753363
 C   -0.414161468001   -0.495529179111   -0.361068753363
 C    0.471838531999   -1.081529179111    0.540931246637
 C   -0.006161468001   -0.290529179111   -1.675068753363
 C    1.755838531999   -1.454529179111    0.129931246637
 C    1.267838531999   -0.667529179111   -2.089068753363
 C    2.154838531999   -1.241529179111   -1.186068753363
 H   -2.113161468001    0.770470820889   -0.507068753363
 H   -1.766161468001    0.208470820889    1.115931246637
 H   -3.815161468001   -0.792529179111    0.149931246637
 H    0.173838531999   -1.229529179111    1.564931246637
 H   -0.681161468001    0.173470820889   -2.379068753363
 H    2.451838531999   -1.889529179111    0.828931246637
 H    1.556838531999   -0.535529179111   -3.119068753363
 H    3.146838531999   -1.530529179111   -1.508068753363
 H   -2.628731468001   -2.036739179111    0.610283246637
 H   -2.940781468001   -1.509319179111   -1.145417853363
