20
0 1 
 C    1.355568364866   -0.824804456901    3.570274011135
 C    0.083568364866   -1.345804456901    1.561274011135
 N   -0.724431635134   -0.979804456901    0.591274011135
 N    0.445568364866   -0.470804456901    2.482274011135
 N    0.534568364866   -2.580804456901    1.650274011135
 H   -1.069431635134   -0.031804456901    0.543274011135
 H   -1.004431635134   -1.654804456901   -0.119725988865
 H    0.086568364866    0.480195543099    2.420274011135
 H    1.145568364866   -2.843804456901    2.410274011135
 H    0.277568364866   -3.267804456901    0.943274011135
 H    2.308568364866   -1.132804456901    3.140274011135
 H    0.924568364866   -1.655804456901    4.132274011135
 H    1.517088364866    0.027885543099    4.246164011135
 C    0.573568364866    2.550195543099   -2.061725988865
 C   -0.477431635134    1.507195543099   -2.479725988865
 O   -1.213431635134    0.958195543099   -1.633725988865
 O   -0.586431635134    1.260195543099   -3.687725988865
 H    0.336568364866    3.505195543099   -2.539725988865
 H    1.556568364866    2.221195543099   -2.407725988865
 H    0.652838364866    2.693155543099   -0.973935988865
