27
0 1 
 C   -0.529649172091   -1.480473011605   -2.477288632714
 C    0.198350827909    0.294526988395   -0.671288632714
 C    0.474350827909   -0.739473011605   -1.633288632714
 C    1.439350827909    0.688526988395   -0.106288632714
 C    1.828350827909   -0.920473011605   -1.615288632714
 C   -0.970649172091    0.923526988395   -0.226288632714
 C    1.533350827909    1.669526988395    0.867711367286
 C   -0.874649172091    1.913526988395    0.746711367286
 C    0.364350827909    2.280526988395    1.281711367286
 N    2.407350827909   -0.068473011605   -0.707288632714
 H   -1.923649172091    0.657526988395   -0.653288632714
 H   -1.288649172091   -1.910473011605   -1.823288632714
 H   -0.007649172091   -2.310473011605   -2.954288632714
 H    2.365350827909   -1.632473011605   -2.233288632714
 H    3.409350827909   -0.035473011605   -0.522288632714
 H    2.489350827909    1.949526988395    1.285711367286
 H   -1.770649172091    2.411526988395    1.093711367286
 H    0.408350827909    3.054526988395    2.037711367286
 H   -1.026751172091   -0.873622011605   -3.248405632714
 C   -2.104649172091   -1.701473011605    1.545711367286
 C   -3.089649172091   -2.022473011605    2.643711367286
 H   -2.589649172091   -1.110473011605    0.776711367286
 H   -1.271649172091   -1.131473011605    1.956711367286
 H   -1.737649172091   -2.623473011605    1.097711367286
 H   -3.521649172091   -1.103473011605    3.015711367286
 H   -2.485649172091   -2.461473011605    3.432711367286
 H   -3.884987172091   -2.714009011605    2.328726067286
