25
0 1 
 C   -1.612277153100    1.315774971343   -2.104395144824
 C   -0.883277153100    0.741774971343    0.288604855176
 C   -0.801277153100    0.605774971343   -1.061395144824
 C    0.684722846900   -0.820225028657   -0.043395144824
 C    0.186722846900   -0.404225028657   -1.301395144824
 C    1.656722846900   -1.794225028657    0.076604855176
 C    0.705722846900   -0.991225028657   -2.457395144824
 C    2.147722846900   -2.358225028657   -1.085395144824
 C    1.689722846900   -1.954225028657   -2.335395144824
 N    0.004722846900   -0.107225028657    0.906604855176
 H   -1.558277153100    1.418774971343    0.802604855176
 H    0.098722846900   -0.184225028657    1.914604855176
 H   -0.948277153100    1.694774971343   -2.883395144824
 H   -2.107277153100    2.164774971343   -1.641395144824
 H    1.994722846900   -2.120225028657    1.046604855176
 H    0.360722846900   -0.678225028657   -3.431395144824
 H    2.920722846900   -3.108225028657   -1.030395144824
 H    2.112722846900   -2.394225028657   -3.227395144824
 H   -2.350054153100    0.635026971343   -2.554136144824
 C   -1.241277153100    2.877774971343    4.028604855176
 O   -1.576277153100    1.663774971343    3.358604855176
 H   -2.260277153100    1.216774971343    3.870604855176
 H   -1.046277153100    2.656774971343    5.077604855176
 H   -0.342205153100    3.320174971343    3.574786855176
 H   -2.086645153100    3.578424971343    3.961978855176
