27
0 1 
 C   -4.213088581357    1.755271789496   -3.070775055958
 C   -1.253088581357    1.826271789496   -0.944775055958
 C   -2.852088581357    1.568271789496   -2.443775055958
 C   -1.794088581357    0.761271789496   -2.787775055958
 N   -2.490088581357    2.188271789496   -1.268775055958
 N   -0.791088581357    0.987271789496   -1.863775055958
 H   -0.711088581357    2.173271789496   -0.074775055958
 H    0.142911418643    0.587271789496   -1.884775055958
 H   -1.747088581357    0.110271789496   -3.648775055958
 H   -4.954088581357    1.773271789496   -2.271775055958
 H   -4.414088581357    0.888271789496   -3.694775055958
 H   -4.337328581357    2.643491789496   -3.707665055958
 C    1.779911418643    0.143271789496    0.677224944042
 C    2.343911418643    1.333271789496    1.466224944042
 C    1.825911418643   -1.152728210504    1.414224944042
 C    2.788911418643   -2.118728210504    1.399224944042
 C    1.258911418643   -2.719728210504    2.849224944042
 N    0.832911418643   -1.574728210504    2.298224944042
 N    2.402911418643   -3.092728210504    2.278224944042
 H    0.746911418643    0.346271789496    0.399224944042
 H    2.356911418643    0.023271789496   -0.237775055958
 H    3.347911418643    1.063271789496    1.797224944042
 H    3.793911418643   -2.055728210504    1.104224944042
 H    0.725911418643   -3.287728210504    3.603224944042
 H    2.938911418643   -3.905728210504    2.557224944042
 H    1.688511418643    1.518791789496    2.329954944042
 H    2.418831418643    2.223641789496    0.824634944042
