15
0 1 
 C   -1.238656181722   -0.711769960782    1.039060684424
 C   -1.057656181722   -1.051769960782   -0.424939315576
 O   -1.809656181722   -1.841769960782   -0.994939315576
 N   -0.046656181722   -0.460769960782   -1.041939315576
 H    0.135343818278   -0.690769960782   -2.004939315576
 H    0.578343818278    0.150230039218   -0.521939315576
 H   -0.702656181722    0.204230039218    1.277060684424
 H   -0.782656181722   -1.518769960782    1.612060684424
 H   -2.295326181722   -0.591089960782    1.319960684424
 C    2.098343818278    2.557230039218    0.658060684424
 O    1.667343818278    1.201230039218    0.628060684424
 H    1.684343818278    0.855230039218    1.544060684424
 H    2.326343818278    2.859230039218   -0.364939315576
 H    1.297268818278    3.205210039218    1.043260684424
 H    3.023029818278    2.644100039218    1.247460684424
