31
0 1 
 C    2.863447449045    2.562056120360    0.213399093904
 C    0.463447449045    2.493056120360   -0.552600906096
 C    1.385447449045    2.677056120360    0.479399093904
 C   -0.909552550955    2.585056120360   -0.304600906096
 C   -1.368552550955    2.865056120360    0.982399093904
 C    0.913447449045    2.952056120360    1.767399093904
 C   -0.455552550955    3.049056120360    2.019399093904
 H    0.808447449045    2.274056120360   -1.551600906096
 H   -1.616552550955    2.437056120360   -1.109600906096
 H    3.075447449045    2.751056120360   -0.835600906096
 H    3.147447449045    1.527056120360    0.412399093904
 H   -2.430552550955    2.939056120360    1.176399093904
 H    1.579447449045    3.055056120360    2.608399093904
 H   -0.821552550955    3.244056120360    3.015399093904
 H    3.480867449045    3.213306120360    0.849529093904
 C    0.448447449045   -0.890943879640    1.867399093904
 C    0.322447449045   -1.115943879640   -0.645600906096
 C    0.013447449045   -1.621943879640    0.621399093904
 C   -0.066552550955   -1.798943879640   -1.801600906096
 C   -0.693552550955   -2.820943879640    0.711399093904
 C   -0.771552550955   -2.998943879640   -1.694600906096
 C   -1.087552550955   -3.511943879640   -0.437600906096
 O   -1.150552550955   -3.674943879640   -2.817600906096
 H    0.875447449045   -0.191943879640   -0.732600906096
 H    0.170447449045   -1.409943879640   -2.776600906096
 H   -0.351552550955   -0.959943879640    2.603399093904
 H    0.561447449045    0.161056120360    1.611399093904
 H   -0.939552550955   -3.208943879640    1.685399093904
 H   -1.630552550955   -4.442943879640   -0.348600906096
 H   -1.627552550955   -4.485943879640   -2.603600906096
 H    1.390307449045   -1.251323879640    2.306739093904
