18
-1 1 
 C    1.470131588311   -0.054795862481   -2.628342422901
 C    2.602131588311   -0.613795862481   -3.465342422901
 H    0.779131588311   -0.843795862481   -2.362342422901
 H    1.893131588311    0.353204137519   -1.708342422901
 H    0.937131588311    0.746204137519   -3.132342422901
 H    3.378131588311    0.149204137519   -3.517342422901
 H    2.314821588311   -0.877405862481   -4.493912422901
 H    3.033801588311   -1.494465862481   -2.967262422901
 C   -0.067868411689    0.421204137519    0.562657577099
 C    0.346131588311    1.771204137519    1.144657577099
 C   -1.199868411689   -0.296795862481    1.308657577099
 O   -1.595868411689    0.129204137519    2.413657577099
 O   -1.667868411689   -1.341795862481    0.791657577099
 H   -0.322868411689    0.520204137519   -0.492342422901
 H    0.812131588311   -0.224795862481    0.602657577099
 H    1.283131588311    2.046204137519    0.662657577099
 H    0.547131588311    1.674204137519    2.212657577099
 H   -0.372148411689    2.586024137519    0.971027577099
