20
0 1 
 C    2.788275656055    1.126627635389    2.819013722671
 C    2.424275656055    0.645627635389    1.414013722671
 O    1.442275656055    1.174627635389    0.830013722671
 O    3.126275656055   -0.258372364611    0.912013722671
 H    2.329275656055    0.455627635389    3.549013722671
 H    2.376275656055    2.123627635389    2.984013722671
 H    3.872265656055    1.153171635389    3.004103722671
 C   -3.521724343945   -1.465372364611   -1.991986277329
 C   -1.577724343945   -0.311372364611   -0.976986277329
 N   -1.049724343945    0.807627635389   -0.517986277329
 N   -2.841724343945   -0.324372364611   -1.382986277329
 N   -0.808724343945   -1.382372364611   -1.072986277329
 H   -1.588724343945    1.656627635389   -0.495986277329
 H   -0.098724343945    0.826627635389   -0.136986277329
 H   -3.356724343945    0.542627635389   -1.325986277329
 H   -1.115724343945   -2.186372364611   -1.616986277329
 H    0.163275656055   -1.308372364611   -0.825986277329
 H   -2.830724343945   -2.055372364611   -2.592986277329
 H   -4.290724343945   -1.090372364611   -2.671986277329
 H   -4.006814343945   -2.113353364611   -1.247126277329
