14
0 1 
 C    1.334492040398    1.575521780203    0.182168467993
 C    1.138492040398    1.068521780203    1.600168467993
 H    1.244492040398    2.661521780203    0.159168467993
 H    2.331492040398    1.297521780203   -0.157831532007
 H    0.608492040398    1.153521780203   -0.504831532007
 H    1.336492040398   -0.004478219797    1.600168467993
 H    0.101458740398    1.237971780203    1.925508467993
 H    1.868198040398    1.545861780203    2.270748467993
 C   -1.419507959602   -1.739478219797   -1.291831532007
 O   -0.900507959602   -0.734478219797   -0.443831532007
 H   -1.070507959602   -1.009478219797    0.467168467993
 H   -1.015507959602   -2.700478219797   -1.009831532007
 H   -1.139507959602   -1.524478219797   -2.322831532007
 H   -2.516945959602   -1.771288219797   -1.223871532007
