21
1 1 
 C   -1.895400641209   -0.585327197855   -1.794369754576
 C    0.429599358791   -0.201327197855   -1.047369754576
 N   -0.706400641209    0.240672802145   -1.564369754576
 N    0.552599358791   -1.466327197855   -0.691369754576
 N    1.443599358791    0.623672802145   -0.876369754576
 H   -0.744400641209    1.210672802145   -1.843369754576
 H   -0.197400641209   -2.112327197855   -0.869369754576
 H    1.418599358791   -1.808327197855   -0.306369754576
 H    1.372599358791    1.585672802145   -1.170369754576
 H    2.326599358791    0.278672802145   -0.536369754576
 H   -1.898400641209   -1.505327197855   -1.208369754576
 H   -1.916400641209   -0.861327197855   -2.851369754576
 H   -2.810330641209   -0.016317197855   -1.572719754576
 C   -0.189400641209    0.620672802145    2.229630245424
 C    0.321599358791    0.786672802145    3.656630245424
 H   -1.141400641209    1.142672802145    2.117630245424
 H    0.521599358791    1.046672802145    1.528630245424
 H   -0.332400641209   -0.438327197855    2.009630245424
 H    1.234599358791    0.200672802145    3.745630245424
 H   -0.431640641209    0.408922802145    4.363690245424
 H    0.556449358791    1.841672802145    3.861130245424
