23
0 1 
 C    3.040647006644   -1.712125445132   -0.290630717382
 C   -0.365352993356    0.006874554868   -0.008630717382
 C    0.656647006644   -0.985125445132   -0.066630717382
 C   -0.035352993356    1.367874554868   -0.160630717382
 C    1.986647006644   -0.643125445132   -0.269630717382
 C    1.329647006644    1.726874554868   -0.359630717382
 C    2.327647006644    0.713874554868   -0.397630717382
 H   -1.386352993356   -0.293125445132    0.144369282618
 H    0.386647006644   -2.023125445132    0.053369282618
 H   -0.804352993356    2.128874554868   -0.126630717382
 H    1.605647006644    2.763874554868   -0.489630717382
 H    3.852647006644   -1.402125445132   -0.949630717382
 H    2.602647006644   -2.610125445132   -0.722630717382
 H    3.359647006644    0.995874554868   -0.544630717382
 H    3.453186006644   -1.961765445132    0.698049282618
 C   -4.002352993356    0.267874554868    0.015369282618
 C   -4.014352993356   -0.482125445132    1.359369282618
 H   -3.263352993356    1.067874554868    0.009369282618
 H   -3.758352993356   -0.427125445132   -0.786630717382
 H   -4.993352993356    0.683874554868   -0.165630717382
 H   -3.060352993356   -0.989125445132    1.500369282618
 H   -4.800352993356   -1.233125445132    1.298369282618
 H   -4.193752993356    0.193124554868    2.208989282618
