20
0 1 
 C    0.412435366139   -0.755277502732    1.460547933037
 C    0.086435366139   -0.801277502732    2.942547933037
 C    1.671435366139   -1.538277502732    1.155547933037
 H   -0.411564633861   -1.175277502732    0.889547933037
 H    0.547435366139    0.281722497268    1.155547933037
 H   -0.380564633861    0.144722497268    3.223547933037
 H    1.005435366139   -0.896277502732    3.522547933037
 H    1.668435366139   -2.458277502732    1.741547933037
 H    1.650435366139   -1.814277502732    0.098547933037
 H   -0.605284633861   -1.617647502732    3.197617933037
 H    2.563645366139   -0.918457502732    1.328137933037
 C   -1.650564633861    1.642722497268   -1.014452066963
 C   -0.529564633861    0.698722497268   -1.406452066963
 O   -0.731564633861   -0.508277502732   -1.518452066963
 N    0.661435366139    1.227722497268   -1.617452066963
 H   -1.246564633861    2.630722497268   -0.829452066963
 H   -2.087564633861    1.275722497268   -0.086452066963
 H    1.412435366139    0.617722497268   -1.882452066963
 H    0.841435366139    2.200722497268   -1.349452066963
 H   -2.420504633861    1.707662497268   -1.797382066963
