16
0 1 
 C    1.458005428005   -0.875334197755    0.299959259827
 C    1.875005428005   -2.314334197755    0.018959259827
 H    1.469005428005   -0.291334197755   -0.622040740173
 H    0.451005428005   -0.857334197755    0.720959259827
 H    2.144005428005   -0.425334197755    1.018959259827
 H    1.873005428005   -2.857334197755    0.964959259827
 H    2.891145428005   -2.344504197755   -0.401224740173
 H    1.149895428005   -2.797984197755   -0.652089740173
 C   -1.020994571995    1.982665802245   -0.069040740173
 C   -2.313994571995    1.209665802245   -0.263040740173
 H   -1.169994571995    3.037665802245   -0.294040740173
 H   -0.699994571995    1.892665802245    0.969959259827
 H   -0.241994571995    1.578665802245   -0.716040740173
 H   -3.094994571995    1.662665802245    0.348959259827
 H   -2.108994571995    0.216665802245    0.130959259827
 H   -2.638534571995    1.153785802245   -1.312589740173
