27
0 1 
 C   -1.801472060345   -1.434257730359    1.819960578370
 C    0.365527939655   -1.045257730359    0.626960578370
 C   -0.424472060345   -0.851257730359    1.761960578370
 C    1.659527939655   -0.535257730359    0.569960578370
 C    2.169527939655    0.183742269641    1.639960578370
 C    0.091527939655   -0.128257730359    2.843960578370
 C    1.395527939655    0.381742269641    2.783960578370
 H   -0.016472060345   -1.625257730359   -0.201039421630
 H    2.277527939655   -0.722257730359   -0.297039421630
 H   -1.969472060345   -1.816257730359    2.828960578370
 H   -1.859472060345   -2.285257730359    1.141960578370
 H    3.178527939655    0.571742269641    1.598960578370
 H   -0.498472060345    0.014742269641    3.737960578370
 H    1.802527939655    0.929742269641    3.621960578370
 H   -2.605762060345   -0.729697730359    1.561670578370
 C   -0.776472060345    0.691742269641   -2.293039421630
 C   -2.094472060345    1.140742269641   -2.885039421630
 C   -0.210472060345   -0.506257730359   -3.035039421630
 O    0.184527939655    1.724742269641   -2.399039421630
 H   -0.921472060345    0.437742269641   -1.244039421630
 H   -1.911472060345    1.473742269641   -3.902039421630
 H   -0.112472060345   -0.282257730359   -4.099039421630
 H    0.767527939655   -0.764257730359   -2.629039421630
 H   -0.857472060345   -1.374257730359   -2.910039421630
 H    0.695527939655    1.546742269641   -1.593039421630
 H   -2.516042060345    1.956632269641   -2.279559421630
 H   -2.838132060345    0.330532269641   -2.908189421630
