28
0 1 
 C   -2.076555945605   -2.379070989893   -1.855379100155
 C   -1.942555945605    0.920929010107    0.076620899845
 C   -1.924555945605    0.440929010107    1.380620899845
 C   -1.932555945605    0.000929010107   -0.963379100155
 C   -1.963555945605   -1.383070989893   -0.725379100155
 C   -1.937555945605   -0.926070989893    1.634620899845
 C   -1.971555945605   -1.842070989893    0.582620899845
 O   -1.939555945605    1.340929010107    2.423620899845
 H   -1.935555945605    1.983929010107   -0.117379100155
 H   -1.920555945605    0.373929010107   -1.979379100155
 H   -1.886555945605   -1.293070989893    2.641620899845
 H   -1.897555945605    0.897929010107    3.288620899845
 H   -1.737555945605   -3.359070989893   -1.514379100155
 H   -1.429555945605   -2.067070989893   -2.676379100155
 H   -1.988555945605   -2.904070989893    0.795620899845
 H   -3.114945945605   -2.461570989893   -2.208857100155
 C    1.512444054395   -0.183070989893   -2.227379100155
 C    1.709444054395    0.635929010107    0.226620899845
 C    2.189444054395    0.366929010107   -1.014379100155
 C    3.865444054395    1.072929010107    0.216620899845
 N    2.767444054395    1.103929010107    0.969620899845
 N    3.542444054395    0.634929010107   -0.993379100155
 H    0.684444054395    0.523929010107    0.547620899845
 H    2.714444054395    1.478929010107    1.910620899845
 H    0.458444054395   -0.334070989893   -2.011379100155
 H    1.944444054395   -1.158070989893   -2.450379100155
 H    4.849444054395    1.404929010107    0.519620899845
 H    1.618694054395    0.463859010107   -3.110667100155
