30
0 1 
 C    0.152519749464   -2.580176526901    2.368771167451
 C   -1.417480250536   -0.040176526901    0.096771167451
 C   -0.434480250536   -0.400176526901    1.052771167451
 C   -0.649480250536   -1.776176526901    1.393771167451
 C   -1.716480250536   -2.188176526901    0.656771167451
 C   -1.500480250536    1.235823473099   -0.441228832549
 C   -0.577480250536    2.170823473099   -0.016228832549
 C    0.407519749464    1.844823473099    0.923771167451
 C    0.494519749464    0.562823473099    1.453771167451
 N   -2.182480250536   -1.154176526901   -0.122228832549
 H   -2.265480250536    1.488823473099   -1.161228832549
 H   -0.633480250536    3.179823473099   -0.395228832549
 H   -2.975480250536   -1.224176526901   -0.751228832549
 H    1.119519749464    2.600823473099    1.224771167451
 H   -2.136480250536   -3.189176526901    0.686771167451
 H    1.282519749464    0.293823473099    2.131771167451
 H   -0.502480250536   -3.294176526901    2.872771167451
 H    0.528519749464   -1.894176526901    3.128771167451
 H    1.005729749464   -3.110106526901    1.920206167451
 C    1.738519749464    1.154823473099   -2.425228832549
 C    2.885519749464    1.602823473099   -1.553228832549
 C    2.021519749464   -0.313176526901   -2.704228832549
 H    1.687519749464    1.733823473099   -3.347228832549
 H    0.801519749464    1.231823473099   -1.890228832549
 H    3.725519749464    1.906823473099   -2.179228832549
 H    2.565519749464    2.418823473099   -0.908228832549
 H    2.625519749464   -0.433176526901   -3.593228832549
 H    1.087519749464   -0.859176526901   -2.845228832549
 H    3.143949749464    0.694956473099   -0.988433832549
 H    2.544179749464   -0.676736526901   -1.807206832549
