16
0 1 
 C    1.260648057763    1.526288617960    0.365639075744
 C    2.192648057763    1.552288617960    1.577639075744
 H    0.202648057763    1.599288617960    0.559639075744
 H    1.541648057763    2.339288617960   -0.304360924256
 H    1.420648057763    0.589288617960   -0.168360924256
 H    2.225648057763    2.558288617960    1.996639075744
 H    3.190648057763    1.282288617960    1.232639075744
 H    1.837898057763    0.846368617960    2.343038075744
 C   -1.441351942237   -0.920711382040   -0.609360924256
 C   -2.021351942237   -2.153711382040   -1.323360924256
 H   -2.248351942237   -0.310711382040   -0.199360924256
 H   -0.796351942237   -1.246711382040    0.207639075744
 H   -0.843351942237   -0.319711382040   -1.295360924256
 H   -1.198351942237   -2.714711382040   -1.758360924256
 H   -2.701977142237   -1.847001382040   -2.131240924256
 H   -2.518736742237   -2.825431382040   -0.608240924256
