16
0 1 
 C   -0.653753753327    0.019037021857    1.885083968710
 C    0.142246246673   -0.330962978143    3.147083968710
 H   -0.230753753327   -0.491962978143    1.022083968710
 H   -1.686753753327   -0.308962978143    2.001083968710
 H   -0.635753753327    1.096037021857    1.726083968710
 H    0.184246246673   -1.412962978143    3.234083968710
 H    1.172228246673    0.054204521857    3.119113968710
 H   -0.381331753327    0.052370821857    4.035293968710
 C    0.066246246673    0.069037021857   -1.775916031290
 C    0.452246246673    0.246037021857   -3.256916031290
 H    0.592246246673    0.779037021857   -1.146916031290
 H   -1.001753753327    0.245037021857   -1.658916031290
 H    0.299246246673   -0.945962978143   -1.448916031290
 H    0.282246246673    1.284037021857   -3.536916031290
 H    1.506981246673   -0.007560378143   -3.439189031290
 H   -0.184016753327   -0.380794878143   -3.898983031290
