29
0 1 
 C    0.220611067991   -2.007258044132    1.554233184472
 C   -0.133388932009   -2.511258044132    2.936233184472
 C    0.697611067991   -3.154258044132    0.682233184472
 H   -0.695388932009   -1.630258044132    1.099233184472
 H    0.928611067991   -1.187258044132    1.586233184472
 H    0.739611067991   -2.921258044132    3.443233184472
 H   -0.865388932009   -3.314258044132    2.825233184472
 H   -0.008388932009   -3.986258044132    0.739233184472
 H    0.738611067991   -2.826258044132   -0.358766815528
 H   -0.577533932009   -1.718297044132    3.555873184472
 H    1.691191067991   -3.492016044132    1.011963184472
 C   -1.061388932009    1.176741955868    1.102233184472
 C   -1.327388932009    2.644741955868    1.407233184472
 C   -0.354388932009    0.950741955868   -0.212766815528
 C    0.981611067991    1.329741955868   -0.385766815528
 C   -1.032388932009    0.366741955868   -1.280766815528
 C    1.628611067991    1.123741955868   -1.617766815528
 C   -0.390388932009    0.156741955868   -2.505766815528
 C    0.940611067991    0.532741955868   -2.676766815528
 H   -0.433388932009    0.780741955868    1.896233184472
 H   -2.007388932009    0.631741955868    1.105233184472
 H   -0.370388932009    3.156741955868    1.479233184472
 H    1.514611067991    1.796741955868    0.430233184472
 H   -2.067388932009    0.075741955868   -1.166766815528
 H    2.650611067991    1.440741955868   -1.760766815528
 H   -0.931388932009   -0.296258044132   -3.327766815528
 H    1.431611067991    0.378741955868   -3.628766815528
 H   -1.869033932009    2.742331955868    2.359653184472
 H   -1.890025932009    3.115411955868    0.587533184472
