16
0 1 
 C   -0.371917984846    0.106810464615    2.074531288636
 C    0.220082015154   -1.197189535385    1.548531288636
 H   -0.476917984846    0.069810464615    3.159531288636
 H    0.300082015154    0.921810464615    1.816531288636
 H   -1.326917984846    0.295810464615    1.600531288636
 H    1.288082015154   -1.191189535385    1.708531288636
 H    0.054082015154   -1.262189535385    0.474531288636
 H   -0.183681984846   -2.090518535385    2.047468288636
 C    0.665082015154    0.838810464615   -1.408468711364
 C   -0.517917984846    0.253810464615   -2.216468711364
 H    1.257082015154    1.502810464615   -2.040468711364
 H    0.278082015154    1.403810464615   -0.562468711364
 H    1.301082015154    0.035810464615   -1.037468711364
 H   -1.110917984846   -0.340189535385   -1.522468711364
 H   -0.141735984846   -0.408449535385   -3.010129711364
 H   -1.182692184846    1.035980464615   -2.611796711364
