28
0 1 
 C   -1.523264373437    1.521184343330   -0.563034950826
 C   -2.990264373437    1.837184343330   -0.870034950826
 C   -1.312264373437    0.544184343330    0.569965049174
 C   -1.423264373437   -0.827815656670    0.354965049174
 C   -0.997264373437    1.000184343330    1.848965049174
 C   -1.225264373437   -1.729815656670    1.394965049174
 C   -0.798264373437    0.106184343330    2.894965049174
 C   -0.913264373437   -1.259815656670    2.665965049174
 O   -0.719264373437   -2.137815656670    3.689965049174
 H   -1.091264373437    1.086184343330   -1.460034950826
 H   -0.990264373437    2.446184343330   -0.339034950826
 H   -3.505264373437    0.903184343330   -1.101034950826
 H   -1.677264373437   -1.195815656670   -0.628034950826
 H   -0.906264373437    2.062184343330    2.033965049174
 H   -1.312264373437   -2.791815656670    1.215965049174
 H   -0.555264373437    0.462184343330    3.884965049174
 H   -0.841264373437   -3.052815656670    3.414965049174
 H   -3.049174373437    2.512438343330   -1.736384250826
 H   -3.483204373437    2.294145343330    0.000709049174
 C    1.232735626563    0.618184343330   -2.925034950826
 C    3.474735626563   -0.909815656670   -3.012034950826
 S    2.916735626563    0.641184343330   -2.314034950826
 H    0.729735626563   -0.297815656670   -2.612034950826
 H    0.713735626563    1.472184343330   -2.497034950826
 H    1.199735626563    0.717184343330   -4.009034950826
 H    3.067735626563   -1.713815656670   -2.417034950826
 H    4.551735626563   -0.942815656670   -2.955034950826
 H    3.138415626563   -1.087399656670   -4.044193950826
