24
0 1 
 C   -3.624770008752    0.378092313352    0.452937682272
 C   -3.601770008752   -1.025907686648   -0.147062317728
 H   -4.651770008752    0.669092313352    0.685937682272
 H   -3.062770008752    0.412092313352    1.379937682272
 H   -3.196770008752    1.105092313352   -0.238062317728
 H   -2.583770008752   -1.255907686648   -0.465062317728
 H   -4.263710008752   -1.071707686648   -1.024402317728
 H   -3.886250008752   -1.781907686648    0.599617682272
 C    1.090229991248    0.176092313352    2.874937682272
 C   -0.157770008752    0.404092313352   -0.690062317728
 C   -0.109770008752    0.441092313352    0.692937682272
 C    0.976229991248    0.050092313352   -1.407062317728
 C    1.058229991248    0.114092313352    1.372937682272
 C    2.157229991248   -0.269907686648   -0.744062317728
 C    2.194229991248   -0.236907686648    0.645937682272
 O    0.910229991248    0.021092313352   -2.761062317728
 H   -1.066770008752    0.667092313352   -1.209062317728
 H   -0.974770008752    0.746092313352    1.255937682272
 H    0.055229991248    0.310092313352   -3.082062317728
 H    3.030229991248   -0.545907686648   -1.316062317728
 H    1.949229991248   -0.376907686648    3.258937682272
 H    0.184229991248   -0.305907686648    3.245937682272
 H    3.110229991248   -0.488907686648    1.162937682272
 H    1.124909991248    1.215752313352    3.232569682272
