32
0 1 
 C   -1.701149390072    0.642933548221    5.560438220746
 C   -0.104149390072    0.470933548221    2.128438220746
 C   -0.859149390072    0.877933548221    3.219438220746
 C    0.663850609928   -0.679066451779    2.267438220746
 C   -0.876149390072    0.129933548221    4.404438220746
 C    0.684850609928   -1.431066451779    3.452438220746
 C   -0.097149390072   -1.018066451779    4.534438220746
 O    1.458850609928   -1.122066451779    1.270438220746
 H   -0.130149390072    1.035933548221    1.214438220746
 H   -1.466149390072    1.772933548221    3.146438220746
 H    1.927850609928   -1.917066451779    1.541438220746
 H    1.293850609928   -2.321066451779    3.541438220746
 H   -2.037149390072   -0.183066451779    6.189438220746
 H   -2.583149390072    1.133933548221    5.150438220746
 H   -0.100149390072   -1.585066451779    5.454438220746
 H   -1.052409390072    1.322703548221    6.132318220746
 C   -1.034149390072   -0.121066451779   -5.997561779254
 C    0.616850609928    0.483933548221   -2.086561779254
 C    1.066850609928    1.211933548221   -3.179561779254
 C   -0.396149390072   -0.436066451779   -2.257561779254
 C    0.545850609928    1.008933548221   -4.433561779254
 C   -0.951149390072   -0.618066451779   -3.529561779254
 C   -0.469149390072    0.089933548221   -4.613561779254
 O    1.148850609928    0.662933548221   -0.847561779254
 H    0.918850609928   -0.068066451779   -0.246561779254
 H    1.554850609928    2.132933548221   -3.081561779254
 H   -0.774149390072   -0.997066451779   -1.418561779254
 H    0.874850609928    1.620933548221   -5.267561779254
 H   -1.755149390072   -1.332066451779   -3.666561779254
 H   -1.538149390072   -1.085066451779   -6.038561779254
 H   -0.168149390072   -0.207066451779   -6.657561779254
 H   -1.701649390072    0.663283548221   -6.383891779254
