23
0 1 
 C    1.878435451400    0.347539763674   -1.231056013931
 C    0.725435451400   -0.292460236326    0.983943986069
 C    1.463435451400    0.523539763674    0.196943986069
 C    1.354435451400    1.441539763674    2.214943986069
 N    0.614435451400    0.339539763674    2.213943986069
 N    1.900435451400    1.563539763674    1.014943986069
 H    0.277435451400   -1.231460236326    0.693943986069
 H    0.087435451400   -0.003460236326    3.009943986069
 H    1.783435451400    1.297539763674   -1.759056013931
 H    1.198435451400   -0.367460236326   -1.695056013931
 H    1.507435451400    2.109539763674    3.055943986069
 H    2.908515451400   -0.028720236326   -1.316896013931
 C   -1.819564548600   -1.223460236326   -1.586056013931
 C   -2.685564548600   -2.235460236326   -2.335056013931
 C   -2.790564548600   -0.131460236326   -1.048056013931
 H   -1.306564548600   -1.703460236326   -0.755056013931
 H   -1.096564548600   -0.787460236326   -2.277056013931
 H   -3.155564548600   -1.710460236326   -3.170056013931
 H   -3.490564548600   -2.536460236326   -1.659056013931
 H   -3.479564548600    0.151539763674   -1.847056013931
 H   -3.391564548600   -0.554460236326   -0.243056013931
 H   -2.239504548600   -3.154650236326   -2.742636013931
 H   -2.232474548600    0.773739763674   -0.766736013931
