15
-1 1 
 C    1.995521807672    1.308514239209    0.058154744073
 C    0.593521807672    1.235514239209    0.643154744073
 O   -0.286478192328    1.999514239209    0.199154744073
 O    0.379521807672    0.431514239209    1.573154744073
 H    2.442521807672    0.324514239209    0.104154744073
 H    2.581521807672    1.990514239209    0.678154744073
 H    2.007001807672    1.661507239209   -0.983605255927
 C   -1.015478192328   -1.746485760791   -1.165845255927
 C   -1.622478192328   -3.141485760791   -1.265845255927
 H   -0.191478192328   -1.627485760791   -1.867845255927
 H   -1.771478192328   -1.010485760791   -1.417845255927
 H   -0.656478192328   -1.563485760791   -0.153845255927
 H   -1.959478192328   -3.326485760791   -2.279845255927
 H   -0.863518192328   -3.898283760791   -1.018375255927
 H   -2.482888192328   -3.223566760791   -0.585435255927
