20
0 1 
 C    3.607669859561    0.121483140425    1.390301672718
 C    1.562669859561   -0.507516859575    0.225301672718
 N    0.894669859561   -1.373516859575   -0.516698327282
 N    2.815669859561   -0.780516859575    0.579301672718
 N    0.982669859561    0.622483140425    0.610301672718
 H    1.328669859561   -2.233516859575   -0.814698327282
 H   -0.070330140439   -1.172516859575   -0.782698327282
 H    3.237669859561   -1.646516859575    0.273301672718
 H    1.490669859561    1.289483140425    1.172301672718
 H    0.024669859561    0.825483140425    0.334301672718
 H    3.392669859561    1.143483140425    1.074301672718
 H    4.655669859561   -0.089516859575    1.213301672718
 H    3.389569859561    0.021633140425    2.463831672718
 C   -3.907330140439    0.623483140425   -0.643698327282
 C   -2.388330140439    0.468483140425   -0.562698327282
 O   -1.894330140439   -0.682516859575   -0.568698327282
 O   -1.660330140439    1.485483140425   -0.513698327282
 H   -4.198330140439    0.795483140425   -1.681698327282
 H   -4.225330140439    1.469483140425   -0.035698327282
 H   -4.417880140439   -0.272156859575   -0.260058327282
