19
0 1 
 C    1.262643385328   -0.582864732160    0.435657186217
 C    2.217643385328    0.008135267840    1.489657186217
 C    1.612643385328   -1.943864732160   -0.140342813783
 H    0.279643385328   -0.677864732160    0.900657186217
 H    1.157643385328    0.123135267840   -0.390342813783
 H    3.199643385328    0.132135267840    1.037657186217
 H    1.957643385328   -2.614864732160    0.642657186217
 H    0.710643385328   -2.376864732160   -0.573342813783
 H    2.288303385328   -0.618714732160    2.390807186217
 H    1.829893385328    1.006755267840    1.739487186217
 H    2.372323385328   -1.883834732160   -0.933612813783
 C   -2.155356614672    0.881135267840   -0.303342813783
 C   -2.836356614672    1.596135267840   -1.451342813783
 H   -1.143356614672    1.245135267840   -0.159342813783
 H   -2.711356614672    1.051135267840    0.618657186217
 H   -2.111356614672   -0.190864732160   -0.499342813783
 H   -2.946356614672    2.647135267840   -1.189342813783
 H   -2.252896614672    1.498775267840   -2.378762813783
 H   -3.835586614672    1.150835267840   -1.566442813783
