19
0 1 
 C    2.026050648909    0.305210060210   -0.149139490504
 C    3.062050648909   -0.729789939790   -0.528139490504
 H    1.547050648909    0.017210060210    0.784860509496
 H    2.514050648909    1.267210060210    0.005860509496
 H    1.307050648909    0.424210060210   -0.952139490504
 H    2.590050648909   -1.711789939790   -0.540139490504
 H    3.482321648909   -0.510643939790   -1.520789490504
 H    3.876192648909   -0.737742939790    0.211530509496
 C   -1.214949351091    0.328210060210    0.088860509496
 C   -2.295949351091    0.007210060210   -0.936139490504
 C   -1.664949351091    0.111210060210    1.527860509496
 H   -0.416949351091   -0.381789939790   -0.086139490504
 H   -0.862949351091    1.353210060210   -0.027139490504
 H   -3.177949351091    0.587210060210   -0.708139490504
 H   -0.896949351091    0.500210060210    2.191860509496
 H   -2.577949351091    0.678210060210    1.709860509496
 H   -1.854949351091   -0.935789939790    1.747860509496
 H   -1.957953751091    0.255651060210   -1.953019490504
 H   -2.526281451091   -1.067913939790   -0.903649490504
