14
0 1 
 C   -0.202397293346    2.036178442252    0.041680098237
 C    0.871602706654    3.118178442252    0.048680098237
 H   -0.125397293346    1.456178442252   -0.876319901763
 H   -0.145397293346    1.397178442252    0.918680098237
 H   -1.186397293346    2.498178442252    0.075680098237
 H    0.685602706654    3.800178442252    0.881680098237
 H    0.855242706654    3.684270352252   -0.894329901763
 H    1.844932706654    2.627214442252    0.195610098237
 C   -0.572397293346   -2.558821557748    0.617680098237
 S   -0.029397293346   -1.137821557748   -0.302319901763
 H   -0.047397293346   -1.695821557748   -1.520319901763
 H    0.107602706654   -3.391821557748    0.443680098237
 H   -1.559397293346   -2.842821557748    0.242680098237
 H   -0.649477293346   -2.341269557748    1.693190098237
