30
0 1 
 C   -0.283094061815   -1.066532179028   -3.150750421310
 C    0.324905938185    0.383467820972   -1.089750421310
 C    0.615905938185   -0.627532179028   -2.057750421310
 C    1.449905938185    0.487467820972   -0.235750421310
 C    1.865905938185   -1.084532179028   -1.778750421310
 C   -0.736094061815    2.114467820972    0.203249578690
 C    0.395905938185    2.192467820972    1.034249578690
 C   -0.777094061815    1.219467820972   -0.862750421310
 C    1.498905938185    1.387467820972    0.818249578690
 N    2.365905938185   -0.429532179028   -0.679750421310
 H   -1.587094061815    2.754467820972    0.386249578690
 H    0.403905938185    2.892467820972    1.858249578690
 H   -1.646094061815    1.155467820972   -1.499750421310
 H    2.371905938185    1.437467820972    1.446249578690
 H    0.314905938185   -1.398532179028   -3.997750421310
 H   -0.873094061815   -0.208532179028   -3.477750421310
 H    2.379905938185   -1.865532179028   -2.327750421310
 H    3.293905938185   -0.604532179028   -0.295750421310
 H   -0.963463061815   -1.874292179028   -2.843136421310
 C   -2.127094061815   -0.722532179028    2.438249578690
 C   -3.007094061815   -1.667532179028    1.611249578690
 C   -0.938094061815   -1.410532179028    3.147249578690
 H   -1.750094061815    0.064467820972    1.787249578690
 H   -2.751094061815   -0.268532179028    3.209249578690
 H   -2.456094061815   -1.993532179028    0.731249578690
 H   -1.306094061815   -2.228532179028    3.763249578690
 H   -3.939961061815   -1.163932179028    1.317737578690
 H   -3.274865061815   -2.539972179028    2.225379578690
 H   -0.226489061815   -1.825692179028    2.418379578690
 H   -0.417261061815   -0.719692179028    3.826569578690
