23
0 1 
 C    2.870445137257   -0.044871570262    0.775579028323
 C   -0.798554862743    0.800128429738    0.324579028323
 C   -0.778554862743    1.495128429738   -0.883420971677
 C    0.390445137257    0.301128429738    0.859579028323
 C    1.601445137257    0.497128429738    0.195579028323
 C    0.429445137257    1.691128429738   -1.552420971677
 C    1.614445137257    1.190128429738   -1.014420971677
 H   -1.730554862743    0.654128429738    0.851579028323
 H   -1.698554862743    1.880128429738   -1.302420971677
 H    0.366445137257   -0.247871570262    1.788579028323
 H    0.442445137257    2.220128429738   -2.492420971677
 H    3.393445137257   -0.611871570262    0.013579028323
 H    2.603445137257   -0.753871570262    1.562579028323
 H    2.541445137257    1.341128429738   -1.548420971677
 H    3.534133137257    0.720428429738    1.204346028323
 C   -2.305554862743   -2.558871570262   -0.233420971677
 C   -2.579554862743   -2.530871570262    1.264579028323
 H   -2.319554862743   -3.581871570262   -0.606420971677
 H   -3.077554862743   -1.996871570262   -0.758420971677
 H   -1.336554862743   -2.105871570262   -0.443420971677
 H   -3.554554862743   -2.984871570262    1.445579028323
 H   -2.626554862743   -1.483871570262    1.555579028323
 H   -1.824180962743   -3.052561570262    1.870593028323
