27
0 1 
 C    0.168118890912   -0.807374844612   -2.570951637117
 C    0.291118890912   -1.011374844612   -1.074951637117
 C    1.215118890912   -0.298374844612   -0.307951637117
 C   -0.545881109088   -1.924374844612   -0.428951637117
 C    1.304118890912   -0.499374844612    1.068048362883
 C   -0.455881109088   -2.140374844612    0.945048362883
 C    0.468118890912   -1.427374844612    1.691048362883
 O    0.543118890912   -1.649374844612    3.033048362883
 H   -0.757881109088   -0.260374844612   -2.754951637117
 H    0.067118890912   -1.786374844612   -3.036951637117
 H    1.861118890912    0.442625155388   -0.744951637117
 H   -1.285881109088   -2.468374844612   -0.999951637117
 H    2.019118890912    0.064625155388    1.650048362883
 H   -1.105881109088   -2.850374844612    1.435048362883
 H    1.228118890912   -1.121374844612    3.455048362883
 H    0.992908890912   -0.274745844612   -3.066971637117
 C   -0.495881109088    2.634625155388   -0.795951637117
 C   -0.431881109088    3.971625155388   -1.541951637117
 C   -1.840881109088    2.360625155388   -0.135951637117
 H   -0.281881109088    1.827625155388   -1.492951637117
 H    0.264118890912    2.624625155388   -0.013951637117
 H   -0.653881109088    4.772625155388   -0.832951637117
 H   -2.598881109088    2.118625155388   -0.878951637117
 H   -1.736881109088    1.500625155388    0.527048362883
 H   -2.156881109088    3.222625155388    0.453048362883
 H    0.571618890912    4.140185155388   -1.959781637117
 H   -1.190201109088    4.005155155388   -2.338081637117
