16
0 1 
 C   -1.555130080361   -1.343498208394   -0.388974964481
 C   -0.634130080361   -1.840498208394   -1.497974964481
 H   -2.599130080361   -1.529498208394   -0.645974964481
 H   -1.316130080361   -1.847498208394    0.546025035519
 H   -1.413130080361   -0.271498208394   -0.244974964481
 H    0.394869919639   -1.781498208393   -1.134974964481
 H   -0.730310080361   -1.193738208394   -2.382536964481
 H   -0.838090080361   -2.892508208394   -1.746306964481
 C    1.208869919639    0.835501791606    0.894025035519
 C    0.977869919639    2.347501791606    0.986025035519
 H    2.140869919639    0.567501791606    1.391025035519
 H    0.405869919639    0.302501791606    1.395025035519
 H    1.253869919639    0.521501791606   -0.148974964481
 H    1.031869919639    2.649501791606    2.028025035519
 H    1.730059919639    2.912181791607    0.415624035519
 H   -0.030610080361    2.574871791607    0.610175035519
