19
0 1 
 C   -0.825429248522   -1.451618061049   -0.279521139824
 C   -1.259429248522   -1.398618061049    1.191478860176
 C   -1.934429248522   -1.114618061049   -1.264521139824
 H   -0.000429248522   -0.771618061049   -0.457521139824
 H   -0.462429248522   -2.440618061049   -0.529521139824
 H   -2.117429248522   -2.057618061049    1.325478860176
 H   -2.168429248522   -0.052618061049   -1.220521139824
 H   -1.596429248522   -1.345618061049   -2.275521139824
 H   -2.825429248522   -1.705618061049   -1.046521139824
 H   -0.431299248522   -1.739148061049    1.830420660176
 H   -1.558239248522   -0.378918061049    1.475961760176
 C    1.409570751478    1.510381938951   -0.108521139824
 C    2.552570751478    2.360381938951    0.450478860176
 H    1.340570751478    0.599381938951    0.483478860176
 H    0.464570751478    2.051381938951   -0.057521139824
 H    1.566570751478    1.254381938951   -1.156521139824
 H    2.631570751478    3.262381938951   -0.152521139824
 H    3.499540751478    1.801781938951    0.415432860176
 H    2.337720751478    2.642781938951    1.491676360176
