24
0 1 
 C    0.152880022369    1.018406925948    2.859021785013
 C    1.256880022369    0.605406925948    0.630021785013
 C    0.120880022369    0.956406925948    1.357021785013
 C    1.219880022369    0.572406925948   -0.759978214987
 C   -1.047119977631    1.283406925948    0.677021785013
 C    0.038880022369    0.892406925948   -1.422978214987
 C   -1.095119977631    1.246406925948   -0.705978214987
 O   -0.027119977631    0.863406925948   -2.776978214987
 H    2.172880022369    0.353406925948    1.147021785013
 H    2.092880022369    0.296406925948   -1.331978214987
 H    1.011880022369    0.465406925948    3.243021785013
 H   -0.753119977631    0.536406925948    3.230021785013
 H   -1.912119977631    1.588406925948    1.240021785013
 H   -2.004119977631    1.509406925948   -1.224978214987
 H   -0.882119977631    1.152406925948   -3.097978214987
 H    0.187560022369    2.058066925948    3.216653785013
 C   -0.037119977631   -3.001593074052    0.856021785013
 C   -0.444119977631   -3.702593074052   -0.436978214987
 H   -0.870119977631   -2.423593074052    1.248021785013
 H    0.255880022369   -3.744593074052    1.595021785013
 H    0.803880022369   -2.333593074052    0.668021785013
 H   -1.276119977631   -4.365593074052   -0.203978214987
 H   -0.760599977631   -2.952653074052   -1.176868214987
 H    0.388190022369   -4.302783074052   -0.833248214987
