24
0 1 
 C   -1.809662380908   -0.149120767704    2.979773965628
 C   -0.983662380908   -1.012120767704    3.923773965628
 H   -2.799662380908    0.036879232296    3.396773965628
 H   -1.303662380908    0.805879232296    2.836773965628
 H   -1.905662380908   -0.644120767704    2.013773965628
 H   -0.903662380908   -0.488120767704    4.875773965628
 H    0.017337619092   -1.102120767704    3.499773965628
 H   -1.393012380908   -2.021520767704    4.077193965628
 C   -0.406662380908    2.852879232296   -1.820226034372
 C    0.742337619092   -0.046120767704    0.373773965628
 C    0.767337619092   -1.094120767704   -0.545226034372
 C    0.349337619092    1.228879232296   -0.042226034372
 C   -0.018662380908    1.465879232296   -1.369226034372
 C    0.398337619092   -0.868120767704   -1.872226034372
 C    0.009337619092    0.405879232296   -2.278226034372
 O    1.153337619092   -2.341120767704   -0.153226034372
 H    1.040337619092   -0.223120767704    1.396773965628
 H    0.354337619092    2.043879232296    0.670773965628
 H    0.412337619092   -1.664120767704   -2.594226034372
 H    1.196337619092   -2.958120767704   -0.883226034372
 H    0.113337619092    3.069879232296   -2.753226034372
 H   -0.049662380908    3.580879232296   -1.089226034372
 H   -0.261662380908    0.566879232296   -3.311226034372
 H   -1.486502380908    3.004679232296   -1.964826034372
