23
0 1 
 C    2.535017604060    1.259172786132   -1.564297998987
 C    0.085017604060   -0.988827213868    1.145702001013
 C    0.607017604060   -1.614827213868    0.007702001013
 C    0.386017604060    0.372172786132    1.411702001013
 C    1.419017604060   -0.876827213868   -0.854297998987
 C    1.214017604060    1.090172786132    0.539702001013
 C    1.721017604060    0.465172786132   -0.597297998987
 H   -0.548982395940   -1.551827213868    1.821702001013
 H    0.383017604060   -2.651827213868   -0.200297998987
 H   -0.018982395940    0.866172786132    2.286702001013
 H    1.825017604060   -1.341827213868   -1.740297998987
 H    1.456017604060    2.124172786132    0.742702001013
 H    3.275017604060    0.583172786132   -1.984297998987
 H    3.042017604060    2.032172786132   -0.988297998987
 H    1.946732604060    1.682542786132   -2.391747998987
 C   -3.329982395940   -0.036827213868    0.768702001013
 C   -3.790982395940    0.157172786132   -0.679297998987
 H   -4.128982395940    0.266172786132    1.437702001013
 H   -3.093982395940   -1.086827213868    0.944702001013
 H   -2.444982395940    0.569172786132    0.960702001013
 H   -4.720982395940   -0.388827213868   -0.817297998987
 H   -4.014671395940    1.222392786132   -0.838257998987
 H   -3.031318395940   -0.259657213868   -1.356917998987
