13
-1 1 
 C   -2.280556285611   -0.518885291110    0.883121343906
 O   -1.669556285611    0.464114708890    1.703121343906
 H   -0.741556285611    0.465114708890    1.396121343906
 H   -1.563556285611   -1.317885291110    0.692121343906
 H   -3.150589285611   -0.935114291110    1.412078343906
 H   -2.583855285611   -0.092394291110   -0.084408656094
 C    1.384443714389    1.215114708890   -1.401878656094
 C    1.037443714389   -0.062885291110   -0.662878656094
 O    0.853443714389    0.027114708890    0.569121343906
 O    0.937443714389   -1.137885291110   -1.302878656094
 H    2.453443714389    1.397114708890   -1.282878656094
 H    0.837443714389    2.060114708890   -0.975878656094
 H    1.140250714389    1.144827708890   -2.472128656094
