28
0 1 
 C    2.680697647904    0.535592085203   -0.729120692631
 C    3.428697647904   -0.793407914797   -0.678120692631
 C    1.582697647904    0.710592085203    0.287879307369
 C    1.143697647904   -0.356407914797    1.081879307369
 C    0.984697647904    1.963592085203    0.449879307369
 C    0.128697647904   -0.172407914797    2.021879307369
 C   -0.029302352096    2.156592085203    1.385879307369
 C   -0.454302352096    1.088592085203    2.172879307369
 O   -1.437302352096    1.285592085203    3.094879307369
 H    3.396697647904    1.349592085203   -0.608120692631
 H    2.229697647904    0.641592085203   -1.717120692631
 H    2.714697647904   -1.614407914797   -0.759120692631
 H    1.557697647904   -1.347407914797    0.987879307369
 H    1.307697647904    2.789592085203   -0.169120692631
 H   -0.209302352096   -1.002407914797    2.625879307369
 H   -0.482302352096    3.126592085203    1.503879307369
 H   -1.617302352096    0.494592085203    3.614879307369
 H    4.031427647904   -0.871007914797    0.238779307369
 H    4.093617647904   -0.846567914797   -1.552790692631
 C   -0.284302352096   -1.131407914797   -2.365120692631
 C   -2.649302352096   -1.015407914797   -0.884120692631
 S   -2.011302352096   -1.668407914797   -2.434120692631
 H    0.127697647904   -1.314407914797   -1.376120692631
 H    0.303697647904   -1.671407914797   -3.106120692631
 H   -0.226302352096   -0.062407914797   -2.575120692631
 H   -2.053302352096   -1.391407914797   -0.051120692631
 H   -3.666302352096   -1.392407914797   -0.771120692631
 H   -2.665992352096    0.084042085203   -0.853640692631
