27
0 1 
 C    1.086994766171   -3.682083978271    1.836982533081
 C    1.014994766171   -4.796083978271    0.798982533081
 H    0.266994766171   -2.980083978271    1.706982533081
 H    1.006994766171   -4.121083978271    2.825982533081
 H    2.032994766171   -3.148083978271    1.764982533081
 H    0.011994766171   -5.224083978271    0.823982533081
 H    1.711994766171   -5.568083978271    1.105982533081
 H    1.249894766171   -4.482879978271   -0.228987466919
 C   -1.854005233829    2.043916021729   -2.547017466919
 C   -0.300005233829    0.840916021729    0.647982533081
 C   -0.235005233829    1.049916021729   -0.755017466919
 C   -1.478005233829    1.658916021729   -1.156017466919
 C   -2.221005233829    1.792916021729   -0.025017466919
 C    1.882994766171   -0.120083978271    0.666982533081
 C    0.747994766171    0.261916021729    1.365982533081
 C    1.975994766171    0.071916021729   -0.724017466919
 C    0.922994766171    0.648916021729   -1.442017466919
 N   -1.521005233829    1.308916021729    1.056982533081
 H    2.701994766171   -0.579083978271    1.201982533081
 H    0.669994766171    0.111916021729    2.432982533081
 H    2.875994766171   -0.228083978271   -1.245017466919
 H    1.000994766171    0.796916021729   -2.509017466919
 H   -1.875005233829    1.303916021729    2.007982533081
 H   -3.223005233829    2.207916021729    0.020982533081
 H   -1.846005233829    1.156916021729   -3.170017466919
 H   -1.046005233829    2.683916021729   -2.895017466919
 H   -2.789905233829    2.609190021729   -2.667687466919
