22
0 1 
 C   -1.091179122680    1.573627343173   -0.316766869662
 C   -2.035179122680    2.726627343173   -0.031766869662
 C   -1.978179122680    0.623627343173   -1.093766869662
 H   -0.786179122680    1.090627343173    0.609233130338
 H   -0.225179122680    1.891627343173   -0.898766869662
 H   -1.682179122680    3.281627343173    0.826233130338
 H   -2.120179122680    3.374627343173   -0.904766869662
 H   -1.571179122680   -0.387372656827   -1.112766869662
 H   -2.114179122680    0.995627343173   -2.110766869662
 H   -2.993009122680    2.219231243173    0.155602130338
 H   -2.931599122680    0.676794743173   -0.547723869662
 C    1.376820877320   -1.198372656827    0.309233130338
 C    2.053820877320   -1.276372656827    1.664233130338
 C    1.709820877320   -2.417372656827   -0.534766869662
 H    0.299820877320   -1.119372656827    0.440233130338
 H    1.721820877320   -0.313372656827   -0.224766869662
 H    3.125820877320   -1.439372656827    1.542233130338
 H    1.617820877320   -2.122372656827    2.179233130338
 H    2.782820877320   -2.444372656827   -0.723766869662
 H    1.415820877320   -3.322372656827    0.003233130338
 H    1.869930877320   -0.395864656827    2.297393130338
 H    1.162070877320   -2.363898656827   -1.487189869662
