21
1 1 
 C    1.138596733889    0.077609644668   -2.240752464546
 C    0.870596733889    0.900609644668    0.088247535454
 N    1.319596733889   -0.023390355332   -0.769752464546
 N    0.240596733889    1.963609644668   -0.357752464546
 N    1.016596733889    0.772609644668    1.390247535454
 H    1.837596733889   -0.807390355332   -0.398752464546
 H    0.147596733889    2.109609644668   -1.347752464546
 H   -0.103403266111    2.660609644668    0.283247535454
 H    1.482596733889   -0.035390355332    1.768247535454
 H    0.673596733889    1.483609644668    2.016247535454
 H    1.910596733889    0.745609644668   -2.628752464546
 H    0.167596733889    0.514609644668   -2.481752464546
 H    1.219676733889   -0.873324355332   -2.787702464546
 C   -1.551403266111   -1.522390355332    1.016247535454
 C   -2.949403266111   -2.172390355332    0.832247535454
 H   -0.816403266111   -2.283390355332    1.281247535454
 H   -1.256403266111   -1.049390355332    0.081247535454
 H   -1.591403266111   -0.767390355332    1.802247535454
 H   -2.860403266111   -2.958390355332    0.083247535454
 H   -3.225013266111   -2.624301355332    1.796517535454
 H   -3.721843266111   -1.462444355332    0.501617535454
