30
0 1 
 C   -3.095676722929    2.322849712808   -0.385647676576
 C   -2.261676722929    0.073849712808   -1.156647676576
 C   -2.730676722929    0.885849712808   -0.125647676576
 C   -1.912676722929   -1.251150287192   -0.912647676576
 C   -2.020676722929   -1.773150287192    0.369352323424
 C   -2.825676722929    0.356849712808    1.158352323424
 C   -2.473676722929   -0.967150287192    1.405352323424
 H   -2.154676722929    0.468849712808   -2.157647676576
 H   -1.555676722929   -1.874150287192   -1.720647676576
 H   -2.335676722929    2.752849712808   -1.038647676576
 H   -3.059676722929    2.871849712808    0.555352323424
 H   -1.760676722929   -2.804150287192    0.556352323424
 H   -3.163676722929    0.975849712808    1.978352323424
 H   -2.523676722929   -1.368150287192    2.405352323424
 H   -4.082056722929    2.467546712808   -0.850540676576
 C    1.897323277071   -1.004150287192    2.098352323424
 C    1.281323277071    0.209849712808   -0.006647676576
 C    2.261323277071   -0.383150287192    0.779352323424
 C    1.610323277071    0.785849712808   -1.225647676576
 C    2.925323277071    0.773849712808   -1.666647676576
 C    3.576323277071   -0.391150287192    0.332352323424
 C    3.909323277071    0.184849712808   -0.886647676576
 H    0.254323277071    0.226849712808    0.333352323424
 H    0.839323277071    1.245849712808   -1.825647676576
 H    1.181323277071   -0.344150287192    2.588352323424
 H    2.778323277071   -1.054150287192    2.740352323424
 H    3.179323277071    1.217849712808   -2.615647676576
 H    4.349323277071   -0.852150287192    0.932352323424
 H    4.935323277071    0.168849712808   -1.229647676576
 H    1.445313277071   -2.002602287192    2.004634323424
