24
0 1 
 C   -2.583948631499    0.393895447509    2.373082759088
 C    0.695051368501   -0.073104552491    0.515082759088
 C    1.422051368501    1.023895447509    0.898082759088
 C   -0.596948631499   -0.273104552491    0.980082759088
 C   -1.180948631499    0.630895447509    1.856082759088
 C    0.869051368501    1.932895447509    1.775082759088
 C   -0.438948631499    1.743895447509    2.252082759088
 H    1.153051368501   -0.802104552491   -0.131917240912
 H    2.428051368501    1.163895447509    0.526082759088
 H   -1.139948631499   -1.155104552491    0.670082759088
 H    1.439051368501    2.796895447509    2.091082759088
 H   -2.632948631499    0.695895447509    3.420082759088
 H   -2.781948631499   -0.679104552491    2.349082759088
 H   -0.864948631499    2.459895447509    2.941082759088
 H   -3.376233631499    0.901785447509    1.803582759088
 C    0.913051368501   -1.613104552491   -2.607917240912
 C    1.076051368501   -2.375104552491   -3.907917240912
 O   -0.078948631499   -0.618104552491   -2.760917240912
 H    0.621051368501   -2.300104552491   -1.813917240912
 H    1.860051368501   -1.179104552491   -2.341917240912
 H    1.874051368501   -3.103104552491   -3.757917240912
 H   -0.904948631499   -0.926104552491   -2.332917240912
 H    1.337469368501   -1.671984552491   -4.712457240912
 H    0.163878368501   -2.954984552491   -4.112067240912
