24
0 1 
 C    1.458588517618   -0.358984413208   -2.411148017426
 C    2.793588517618   -0.501984413208   -3.121148017426
 H    0.961588517618    0.556015586792   -2.732148017426
 H    0.820588517618   -1.211984413208   -2.640148017426
 H    1.620588517618   -0.329984413208   -1.334148017426
 H    3.249588517618   -1.424984413208   -2.764148017426
 H    3.445388517618    0.347443586792   -2.868907017426
 H    2.653578517618   -0.581780413208   -4.209280017426
 C   -1.361411482382   -2.354984413208    2.141851982574
 C   -1.153411482382    0.410015586792   -0.445148017426
 C   -1.498411482382   -0.764984413208    0.211851982574
 C   -0.232411482382    1.284015586792    0.126851982574
 C   -0.921411482382   -1.102984413208    1.430851982574
 C    0.298588517618    0.983015586792    1.371851982574
 C   -0.028411482382   -0.207984413208    2.021851982574
 O    0.132588517618    2.442015586792   -0.505148017426
 H   -1.598411482382    0.642015586792   -1.402148017426
 H   -2.215411482382   -1.431984413208   -0.243148017426
 H   -0.307411482382    2.532015586792   -1.359148017426
 H    0.936588517618    1.705015586792    1.834851982574
 H   -0.717411482382   -2.544984413208    3.002851982574
 H   -1.269411482382   -3.196984413208    1.454851982574
 H    0.396588517618   -0.427984413208    2.992851982574
 H   -2.404344482382   -2.253707413208    2.476567282574
