29
2 1 
 C   -1.611990069295    1.825186715548   -0.068069945073
 C   -2.471990069295    0.629186715548    0.397930054927
 C   -0.610990069295    0.223186715548   -1.648069945073
 N   -0.613990069295    1.409186715548   -1.060069945073
 N   -1.578990069295   -0.653813284452   -1.449069945073
 N    0.360009930705   -0.106813284452   -2.471069945073
 H   -2.254990069295    2.602186715548   -0.482069945073
 H   -1.077990069295    2.233186715548    0.791930054927
 H   -1.845990069295   -0.232813284452    0.647930054927
 H   -3.360990069295    0.480186715548   -0.222069945073
 H    0.087009930705    2.083186715548   -1.335069945073
 H   -2.514990069295   -0.295813284452   -1.386069945073
 H   -1.487990069295   -1.569813284452   -1.865069945073
 H    1.123009930705    0.525186715548   -2.653069945073
 H    0.411009930705   -1.031813284452   -2.867069945073
 H   -2.767870069295    0.629186715548    1.457390054927
 C    0.964009930705   -2.549813284452    0.947930054927
 C    1.391009930705   -0.167813284452    1.331930054927
 N    1.499009930705   -1.259813284452    0.573930054927
 N    0.703009930705   -0.195813284452    2.475930054927
 N    1.930009930705    0.989186715548    0.944930054927
 H    2.002009930705   -1.204813284452   -0.315069945073
 H    0.318009930705   -1.071813284452    2.818930054927
 H    0.547009930705    0.661186715548    3.004930054927
 H    2.490009930705    1.005186715548    0.102930054927
 H    1.786009930705    1.830186715548    1.486930054927
 H    0.806009930705   -3.131813284452    0.037930054927
 H   -0.008990069295   -2.461813284452    1.429930054927
 H    1.667159930705   -3.102553284452    1.588290054927
