17
0 1 
 C   -0.323946679825    1.841230518580    1.367726499169
 C   -1.021946679825    2.639230518580    2.471726499169
 H   -0.343946679825    0.776230518580    1.600726499169
 H   -0.838946679825    2.002230518580    0.420726499169
 H    0.707053320175    2.170230518580    1.245726499169
 H   -0.918946679825    3.704230518580    2.259726499169
 H   -0.573986679825    2.417040518580    3.451506499169
 H   -2.091598679825    2.382820518580    2.481766499169
 C    1.188053320175   -1.879769481420   -0.057273500831
 C    0.354053320175   -1.085769481420   -1.036273500831
 O    0.854053320175   -0.219769481420   -1.741273500831
 N   -0.939946679825   -1.361769481420   -1.078273500831
 H    0.901053320175   -2.930769481420   -0.128273500831
 H    0.940053320175   -1.526769481420    0.942726499169
 H   -1.522946679825   -0.839769481420   -1.713273500831
 H   -1.357946679825   -1.992769481420   -0.400273500831
 H    2.269383320175   -1.791819481420   -0.238933500831
