16
0 1 
 C    0.210074227726   -1.159540395201   -1.235901915524
 C    0.440074227726   -2.228540395201   -2.303901915524
 H    0.927074227726   -0.345540395201   -1.346901915524
 H   -0.791925772274   -0.746540395201   -1.349901915524
 H    0.287074227726   -1.583540395201   -0.234901915524
 H    0.310074227726   -1.770540395201   -3.283901915524
 H    1.454899227726   -2.648418395201   -2.241991915524
 H   -0.307465772274   -3.028552395201   -2.198241915524
 C   -0.324925772274    1.620459604799    1.007098084476
 C   -0.324925772274    1.769459604799    2.536098084476
 H   -0.366925772274    2.596459604799    0.527098084476
 H    0.594074227726    1.122459604799    0.698098084476
 H   -1.176925772274    1.019459604799    0.687098084476
 H    0.532074227726    2.373459604799    2.839098084476
 H   -0.209925772274    0.772459604799    2.949098084476
 H   -1.255636772274    2.216944604799    2.914959084476
