27
0 1 
 C   -0.606959150974    3.955906067567    0.487181156946
 C    0.687040849026    0.464906067567   -0.008818843054
 C   -0.172959150974    1.367906067567    0.683181156946
 C    0.070040849026    2.675906067567    0.139181156946
 C    1.027040849026    2.514906067567   -0.809818843054
 C    0.709040849026   -0.902093932433    0.251181156946
 C   -0.134959150974   -1.374093932433    1.243181156946
 C   -1.001959150974   -0.499093932433    1.928181156946
 C   -1.031959150974    0.866906067567    1.664181156946
 N    1.416040849026    1.199906067567   -0.908818843054
 H    1.362040849026   -1.564093932433   -0.295818843054
 H   -0.146959150974   -2.428093932433    1.466181156946
 H    1.987040849026    0.803906067567   -1.650818843054
 H   -1.664959150974   -0.907093932433    2.662181156946
 H    1.387040849026    3.317906067567   -1.439818843054
 H   -1.739959150974    1.516906067567    2.144181156946
 H   -1.634959150974    3.713906067567    0.758181156946
 H   -0.677959150974    4.544906067567   -0.428818843054
 H   -0.190529150974    4.608335067567    1.268801156946
 C   -0.001959150974   -4.037093932433   -1.761818843054
 C   -0.869959150974   -5.237093932433   -2.149818843054
 H   -0.278959150974   -3.678093932433   -0.770818843054
 H    1.047040849026   -4.320093932433   -1.758818843054
 H   -0.130959150974   -3.231093932433   -2.483818843054
 H   -0.764959150974   -5.990093932433   -1.367818843054
 H   -1.930081150974   -4.955487932433   -2.232518843054
 H   -0.490929150974   -5.686152932433   -3.079698843054
