23
-1 1 
 C    2.519646831021   -2.346558574828   -3.318532549077
 C   -0.008353168979    0.335441425172   -1.063532549077
 C    0.208646831021    0.540441425172   -2.433532549077
 C    0.564646831021   -0.769558574828   -0.422532549077
 C    1.000646831021   -0.348558574828   -3.160532549077
 C    1.357646831021   -1.661558574828   -1.163532549077
 C    1.583646831021   -1.451558574828   -2.536532549077
 O   -0.801353168979    1.224441425172   -0.386532549077
 H   -1.145353168979    1.927441425172   -0.934532549077
 H   -0.230353168979    1.395441425172   -2.923532549077
 H    0.395646831021   -0.929558574828    0.633467450923
 H    1.170646831021   -0.183558574828   -4.215532549077
 H    1.806646831021   -2.516558574828   -0.672532549077
 H    2.829646831021   -3.178558574828   -2.688532549077
 H    3.405646831021   -1.770558574828   -3.603532549077
 H    2.041156831021   -2.811438574828   -4.193132549077
 C   -0.429353168979    1.945441425172    3.694467450923
 C   -1.480353168979    0.902441425172    3.276467450923
 O   -1.589353168979    0.655441425172    2.068467450923
 O   -2.216353168979    0.353441425172    4.122467450923
 H   -0.666353168979    2.900441425172    3.216467450923
 H    0.553646831021    1.616441425172    3.348467450923
 H   -0.350083168979    2.088401425172    4.782257450923
