20
0 1 
 C   -0.575638854901   -0.211984701461   -0.866181865915
 C   -0.745638854901   -1.641984701461   -1.379181865915
 C   -2.473638854901   -0.460984701461    1.090818134085
 S   -0.757638854901    0.035015298539    0.914818134085
 H    0.395361145099    0.144015298539   -1.179181865915
 H   -1.320638854901    0.413015298539   -1.360181865915
 H   -1.293638854901   -1.595984701461   -2.319181865915
 H   -1.364638854901   -2.207984701461   -0.686181865915
 H   -2.580638854901   -1.536984701461    0.957818134085
 H   -2.819638854901   -0.203984701461    2.092818134085
 H   -3.090638854901    0.063015298539    0.359818134085
 H    0.190722145099   -2.196625701461   -1.539191865915
 C    2.483361145099    1.822015298539   -0.599181865915
 C    2.962361145099    0.431015298539   -0.176181865915
 H    3.275361145099    2.359015298539   -1.114181865915
 H    1.648361145099    1.753015298539   -1.290181865915
 H    2.173361145099    2.390015298539    0.278818134085
 H    3.209361145099   -0.142984701461   -1.065181865915
 H    2.128361145099   -0.059984701461    0.319818134085
 H    3.828290145099    0.448935298539    0.501938134085
