32
1 1 
 C    1.426254693827    2.346726482787    2.626974294136
 C    1.437254693827    0.771726482787   -0.821025705864
 C    1.357254693827    1.709726482787    0.205974294136
 C    1.751254693827   -0.546273517213   -0.493025705864
 C    1.579254693827    1.340726482787    1.538974294136
 C    1.983254693827   -0.928273517213    0.830974294136
 C    1.860254693827    0.019726482787    1.850974294136
 O    1.825254693827   -1.505273517213   -1.453025705864
 H    1.255254693827    1.062726482787   -1.846025705864
 H    1.105254693827    2.731726482787   -0.025025705864
 H    1.647254693827   -1.159273517213   -2.333025705864
 H    2.192254693827   -1.963273517213    1.060974294136
 H    1.831254693827    3.300726482787    2.286974294136
 H    2.001254693827    2.031726482787    3.495974294136
 H    1.878254693827   -0.276273517213    2.888974294136
 H    0.368674693827    2.479728482787    2.898694294136
 C   -2.301745306173    1.033726482787   -1.138025705864
 C   -3.794745306173    0.866726482787   -1.438025705864
 C   -1.519745306173   -1.140273517213   -0.275025705864
 N   -1.828745306173    0.125726482787   -0.092025705864
 N   -1.125745306173   -1.870273517213    0.746974294136
 N   -1.582745306173   -1.665273517213   -1.485025705864
 H   -1.726745306173    0.901726482787   -2.056025705864
 H   -2.122745306173    2.060726482787   -0.813025705864
 H   -3.950745306173   -0.101273517213   -1.913025705864
 H   -4.106745306173    1.631726482787   -2.148025705864
 H   -1.741745306173    0.481726482787    0.854974294136
 H   -1.062745306173   -1.436273517213    1.655974294136
 H   -0.863745306173   -2.834273517213    0.620974294136
 H   -1.871745306173   -1.101273517213   -2.264025705864
 H   -1.328745306173   -2.629273517213   -1.633025705864
 H   -4.420432306173    0.904538482787   -0.534095705864
