32
0 1 
 C    0.439033530151    1.262368594728   -1.346908012868
 C    0.175033530151    2.631368594728   -1.969908012868
 C   -0.782966469849    0.426368594728   -1.111908012868
 C   -1.072966469849   -0.644631405272   -1.954908012868
 C   -1.621966469849    0.686368594728   -0.026908012868
 C   -2.186966469849   -1.454631405272   -1.720908012868
 C   -2.737966469849   -0.121631405272    0.215091987132
 C   -3.020966469849   -1.193631405272   -0.632908012868
 H    1.168033530151    0.710368594728   -1.936908012868
 H    0.869033530151    1.465368594728   -0.378908012868
 H   -0.436966469849    3.208368594728   -1.277908012868
 H   -0.410966469849   -0.871631405272   -2.771908012868
 H   -1.408966469849    1.511368594728    0.634091987132
 H   -2.395966469849   -2.290631405272   -2.374908012868
 H   -3.385966469849    0.087368594728    1.056091987132
 H   -3.885966469849   -1.815631405272   -0.448908012868
 H   -0.324966469849    2.552068594728   -2.946488012868
 H    1.149303530151    3.131218594728   -2.074528012868
 C    2.260033530151   -0.221631405272    1.728091987132
 C    2.684033530151    0.576368594728    2.970091987132
 C    3.456033530151   -0.964631405272    1.141091987132
 C    1.146033530151   -1.208631405272    2.075091987132
 H    1.911033530151    0.472368594728    0.987091987132
 H    3.359033530151    1.358368594728    2.633091987132
 H    3.777033530151   -1.770631405272    1.796091987132
 H    3.169033530151   -1.403631405272    0.187091987132
 H    4.279033530151   -0.270631405272    0.974091987132
 H    0.236033530151   -0.691631405272    2.379091987132
 H    0.902033530151   -1.792631405272    1.186091987132
 H    1.466033530151   -1.894631405272    2.857091987132
 H    3.206623530151   -0.076491405272    3.684701987132
 H    1.802943530151    1.079118594728    3.395441987132
