27
1 1 
 C   -1.135876096571    3.048227573391    2.262161104680
 C   -0.039876096571   -0.900772426609    0.909161104680
 C    0.934123903429   -0.040772426609    1.396161104680
 C   -1.367876096571   -0.488772426609    0.846161104680
 C    0.575123903429    1.246227573391    1.837161104680
 C   -1.716876096571    0.792227573391    1.288161104680
 C   -0.746876096571    1.674227573391    1.770161104680
 O    0.323123903429   -2.151772426609    0.519161104680
 H    1.965123903429   -0.361772426609    1.446161104680
 H    1.274123903429   -2.286772426609    0.510161104680
 H   -2.113876096571   -1.172772426609    0.470161104680
 H    1.335123903429    1.912227573391    2.220161104680
 H   -2.751876096571    1.104227573391    1.257161104680
 H   -2.211876096571    3.187227573391    2.143161104680
 H   -0.624876096571    3.789227573391    1.647161104680
 H   -0.858806096571    3.226957573391    3.311583104680
 C    1.106123903429   -0.756772426609   -2.607838895320
 C   -0.137876096571   -0.002772426609   -3.063838895320
 N    1.607123903429   -1.668772426609   -3.677838895320
 H    1.877123903429   -0.029772426609   -2.333838895320
 H    0.854123903429   -1.338772426609   -1.716838895320
 H    0.139123903429    0.675227573391   -3.872838895320
 H   -0.513876096571    0.591227573391   -2.226838895320
 H    1.774123903429   -1.176772426609   -4.547838895320
 H    2.484123903429   -2.092772426609   -3.399838895320
 H    0.963123903429   -2.432772426609   -3.846838895320
 H   -0.926176096571   -0.684132426609   -3.416442195320
