19
0 1 
 C    0.890901429968   -0.294605141228   -1.272918857003
 C    2.139901429968    0.589394858772   -1.445918857003
 C    1.096901429968   -1.394605141228   -0.219918857003
 H    0.029901429968    0.315394858772   -1.030918857003
 H    0.692901429968   -0.777605141228   -2.230918857003
 H    2.065901429968    1.118394858772   -2.396918857003
 H    3.014901429968   -0.061605141228   -1.513918857003
 H    2.029901429968   -1.922605141228   -0.411918857003
 H    1.177901429968   -0.914605141228    0.758081142997
 H    2.297221429968    1.312902858772   -0.632418857003
 H    0.263881429968   -2.112581141228   -0.195768857003
 C   -2.018098570032    0.824394858772    0.684081142997
 C   -2.059098570032    0.263394858772    2.172081142997
 H   -2.830098570032    1.541394858772    0.545081142997
 H   -1.065098570032    1.328394858772    0.523081142997
 H   -2.142098570032    0.007394858772   -0.024918857003
 H   -1.272098570032   -0.484605141228    2.238081142997
 H   -3.013908570032   -0.226580141228    2.413481142997
 H   -1.850588570032    1.019497858772    2.943331142997
