20
0 1 
 C   -0.214365067930   -1.963696070014   -1.872081630639
 C   -1.393365067930    0.452303929986    0.598918369361
 C   -0.641365067930   -0.739696070014   -1.099081630639
 C   -0.725365067930    0.563303929986   -1.499081630639
 N   -1.051365067930   -0.767696070014    0.220918369361
 N   -1.198365067930    1.282303929986   -0.427081630639
 H   -1.761365067930    0.661303929986    1.597918369361
 H   -1.370365067930    2.279303929986   -0.427081630639
 H   -0.493365067930    1.031303929986   -2.447081630639
 H    0.564634932070   -2.455696070014   -1.286081630639
 H    0.215634932070   -1.615696070014   -2.811081630639
 H   -1.015135067930   -2.682896070014   -2.099051630639
 C    2.210634932070   -0.198696070014    1.687918369361
 C    2.516634932070    1.258303929986    2.095918369361
 H    1.421634932070   -0.212696070014    0.937918369361
 H    3.105634932070   -0.662696070014    1.274918369361
 H    1.883634932070   -0.767696070014    2.559918369361
 H    3.297634932070    1.264303929986    2.847918369361
 H    1.589456732070    1.681403929986    2.509808369361
 H    2.950098932070    1.809203929986    1.248208369361
