25
1 1 
 C    0.759876987997    0.033845121620    1.882010239664
 C    1.717876987997    1.234845121620    2.014010239664
 C   -0.660123012003    0.453845121620    1.603010239664
 O   -0.920123012003    1.574845121620    1.181010239664
 N   -1.588123012003   -0.465154878380    1.777010239664
 H    1.077876987997   -0.649154878380    1.097010239664
 H    0.784876987997   -0.491154878380    2.838010239664
 H    1.340876987997    2.053845121620    1.402010239664
 H   -2.554123012003   -0.235154878380    1.606010239664
 H   -1.326123012003   -1.392154878380    2.081010239664
 H    2.722646987997    0.951185121620    1.667640239664
 H    1.707836987997    1.661725121620    3.027750239664
 C   -0.047123012003    1.374845121620   -2.156989760336
 C    0.195876987997   -1.027154878380   -1.555989760336
 N   -0.553123012003    0.021845121620   -1.873989760336
 N    1.506876987997   -0.942154878380   -1.470989760336
 N   -0.379123012003   -2.177154878380   -1.297989760336
 H   -1.557123012003   -0.114154878380   -1.945989760336
 H    1.974876987997   -0.059154878380   -1.657989760336
 H    2.059876987997   -1.752154878380   -1.229989760336
 H   -1.388123012003   -2.255154878380   -1.344989760336
 H    0.176876987997   -2.984154878380   -1.054989760336
 H    0.862876987997    1.291845121620   -2.752989760336
 H    0.184876987997    1.869845121620   -1.211989760336
 H   -0.796583012003    1.960475121620   -2.709569760336
