16
0 1 
 C    0.974291644862    0.932996326719    0.433705863966
 C    2.114291644862    1.518996326719    1.263705863966
 H    1.345291644862    0.110996326719   -0.181294136034
 H    0.194291644862    0.556996326719    1.097705863966
 H    0.527291644862    1.691996326719   -0.206294136034
 H    1.730291644862    2.384996326719    1.802705863966
 H    2.939105644862    1.845336326719    0.613175863966
 H    2.464477644862    0.783096326719    2.002505863966
 C   -1.753708355138   -0.646003673281   -1.302294136034
 C   -1.333708355138   -1.812003673281   -0.405294136034
 H   -2.729708355138   -0.839003673281   -1.741294136034
 H   -1.820708355138    0.260996326719   -0.700294136034
 H   -1.019708355138   -0.482003673281   -2.091294136034
 H   -2.011708355138   -1.860003673281    0.445705863966
 H   -0.343708355138   -1.597003673281   -0.003294136034
 H   -1.289098355138   -2.784783673281   -0.916864136034
