21
0 1 
 C    3.386713661475   -0.419139272850    0.666330480146
 C    1.994713661475   -0.162139272850    1.146330480146
 O    1.260713661475   -1.088139272850    1.489330480146
 N    1.604713661475    1.093860727150    1.156330480146
 H    3.828713661475    0.487860727150    0.251330480146
 H    3.304713661475   -1.156139272850   -0.131669519854
 H    0.687713661475    1.328860727150    1.491330480146
 H    2.252713661475    1.824860727150    0.882330480146
 H    4.019313661475   -0.827369272850    1.468300480146
 C   -0.713286338525    0.417860727150   -1.253669519854
 C   -1.040286338525    0.649860727150   -2.734669519854
 C   -1.888286338525   -0.036139272850   -0.446669519854
 O   -3.026286338525    0.333860727150   -0.719669519854
 N   -1.614286338525   -0.811139272850    0.592330480146
 H    0.095713661475   -0.303139272850   -1.163669519854
 H   -0.375286338525    1.354860727150   -0.818669519854
 H   -1.907286338525    1.308860727150   -2.821669519854
 H   -2.379286338525   -1.136139272850    1.162330480146
 H   -0.655286338525   -1.047139272850    0.821330480146
 H   -1.246816338525   -0.311949272850   -3.226879519854
 H   -0.183736338525    1.157600727150   -3.202137519854
