18
0 1 
 C   -0.477788024395    1.685737998812   -3.312308285405
 C   -0.251788024395    1.338737998812   -1.867308285405
 O    0.093211975605    0.207737998812   -1.548308285405
 N   -0.451788024395    2.303737998812   -0.984308285405
 H   -1.234788024395    2.460737998812   -3.378308285405
 H   -0.866788024395    0.803737998812   -3.820308285405
 H   -0.337788024395    2.117737998812    0.006691714595
 H   -0.655788024395    3.242737998812   -1.307308285405
 H    0.441691975605    2.022977998812   -3.813108285405
 C   -1.135788024395   -1.117262001188    2.098691714595
 C    0.332211975605   -1.447262001188    1.947691714595
 O    0.923211975605   -2.092262001188    2.810691714595
 N    0.947211975605   -0.972262001188    0.873691714595
 H    1.925211975605   -1.182262001188    0.754691714595
 H    0.428211975605   -0.513262001188    0.129691714595
 H   -1.559788024395   -0.833262001188    1.135691714595
 H   -1.190788024395   -0.242262001188    2.745691714595
 H   -1.709388024395   -1.944682001188    2.541791714595
