15
0 1 
 C    0.216725125402   -0.523962746466    2.830986638137
 N    1.093725125402    0.265037253534    1.924986638137
 H    0.946725125402    1.260037253534    2.040986638137
 H    2.072725125402    0.072037253534    2.092986638137
 H    0.898725125402    0.039037253534    0.944986638137
 H   -0.831274874598   -0.236962746466    2.694986638137
 H    0.486725125402   -0.328962746466    3.875986638137
 H    0.323765125402   -1.598742746466    2.622684638137
 C   -1.122274874598   -0.448962746466   -2.412013361863
 C   -0.345274874598    0.093037253534   -1.208013361863
 O   -0.677274874598    1.161037253534   -0.640013361863
 O    0.653725125402   -0.567962746466   -0.836013361863
 H   -1.657274874598   -1.355962746466   -2.134013361863
 H   -0.389274874598   -0.752962746466   -3.163013361863
 H   -1.780334874598    0.284117253534   -2.901449361863
