19
1 1 
 C    1.585000874690    0.501530163183    2.655431498621
 O    2.115000874690    0.619530163183    1.343431498621
 H    2.896000874690    1.216530163183    1.368431498621
 H    0.652000874690   -0.058469836817    2.601431498621
 H    1.366000874690    1.489530163183    3.062431498621
 H    2.277582874690   -0.040179836817    3.316401498621
 C   -2.470999125310   -0.285469836817    0.228431498621
 C   -0.397999125310   -0.245469836817   -1.121568501379
 N    0.900000874690   -0.046469836817   -1.185568501379
 N   -1.028999125310   -0.091469836817    0.030431498621
 N   -1.063999125310   -0.591469836817   -2.205568501379
 H    1.415000874690    0.211530163183   -0.350568501379
 H    1.383000874690   -0.145469836817   -2.067568501379
 H   -0.491999125310    0.256530163183    0.811431498621
 H   -2.063999125310   -0.694469836817   -2.176568501379
 H   -0.580999125310   -0.663469836817   -3.086568501379
 H   -3.028999125310   -0.430469836817   -0.697568501379
 H   -2.860999125310    0.626530163183    0.685431498621
 H   -2.664930125310   -1.115669836817    0.923531498621
