23
0 1 
 C    1.217254401901    0.924152834975    3.132462092640
 C   -0.495745598099   -1.286847165025   -0.154537907360
 C   -1.312745598099   -0.781847165025    0.840462092640
 C    0.875254401901   -1.081847165025   -0.090537907360
 C   -0.757745598099   -0.056847165025    1.895462092640
 C    1.433254401901   -0.363847165025    0.972462092640
 C    0.620254401901    0.149152834975    1.977462092640
 H   -0.923745598099   -1.845847165025   -0.976537907360
 H   -2.375745598099   -0.956847165025    0.797462092640
 H    1.514254401901   -1.478847165025   -0.867537907360
 H   -1.409745598099    0.348152834975    2.650462092640
 H    2.503254401901   -0.217847165025    1.011462092640
 H    0.566254401901    1.775152834975    3.338462092640
 H    2.171254401901    1.335152834975    2.840462092640
 H    1.342424401901    0.345963834975    4.059842092640
 C   -0.668745598099    0.321152834975   -3.551537907360
 C   -0.828745598099    1.721152834975   -4.160537907360
 H   -1.148745598099   -0.428847165025   -4.178537907360
 H    0.392254401901    0.079152834975   -3.477537907360
 H   -1.103745598099    0.297152834975   -2.552537907360
 H   -0.471745598099    1.714152834975   -5.191537907360
 H   -0.170745598099    2.371152834975   -3.586537907360
 H   -1.865285598099    2.087244834975   -4.121057907360
