28
0 1 
 C   -0.017954415003    2.893026634045   -1.263545173657
 C    0.531045584997    2.238026634045   -2.542545173657
 C    0.976045584997    2.704026634045   -0.098545173657
 O   -0.205954415003    4.289026634045   -1.492545173657
 H   -0.966954415003    2.423026634045   -1.005545173657
 H    0.673045584997    1.175026634045   -2.358545173657
 H    1.929045584997    3.174026634045   -0.344545173657
 H    0.579045584997    3.160026634045    0.808454826343
 H    1.141045584997    1.639026634045    0.081454826343
 H   -0.557954415003    4.706026634045   -0.700545173657
 H    1.502155584997    2.687226634045   -2.797825173657
 H   -0.225834415003    2.227176634045   -3.340675173657
 C    1.567045584997   -3.521973365955   -0.777545173657
 C   -0.743954415003   -0.634973365955    0.107454826343
 C    0.048045584997   -1.523973365955   -0.619545173657
 C   -0.960954415003   -0.839973365955    1.477454826343
 C    0.631045584997   -2.626973365955    0.004454826343
 C   -0.387954415003   -1.944973365955    2.118454826343
 C    0.405045584997   -2.836973365955    1.377454826343
 O   -1.753954415003    0.049026634045    2.154454826343
 H   -1.182954415003    0.220026634045   -0.382545173657
 H    0.218045584997   -1.358973365955   -1.674545173657
 H   -2.097954415003    0.752026634045    1.606454826343
 H   -0.556954415003   -2.104973365955    3.174454826343
 H    1.877045584997   -4.353973365955   -0.147545173657
 H    2.453045584997   -2.945973365955   -1.062545173657
 H    0.854045584997   -3.691973365955    1.868454826343
 H    1.088555584997   -3.986853365955   -1.652145173657
