27
0 1 
 C    0.593048598752    1.116861684888   -2.443000214805
 C    0.901048598752    2.462861684888   -3.086000214805
 C    1.812048598752    0.554861684888   -1.707000214805
 H   -0.227951401248    1.247861684888   -1.742000214805
 H    0.289048598752    0.404861684888   -3.210000214805
 H    1.841048598752    2.363861684888   -3.634000214805
 H    1.040048598752    3.220861684888   -2.314000214805
 H    1.547048598752   -0.417138315112   -1.288000214805
 H    2.615048598752    0.398861684888   -2.432000214805
 H    0.133918598752    2.812541684888   -3.792567214805
 H    2.169768598752    1.211161684888   -0.899966214805
 C   -1.203951401248   -2.452138315112   -1.146000214805
 C   -1.454951401248   -0.214138315112    0.044999785195
 C   -0.850951401248   -1.475138315112   -0.046000214805
 C   -1.088951401248    0.678861684888    1.054999785195
 C    0.129048598752   -1.821138315112    0.890999785195
 C   -0.101951401248    0.320861684888    1.977999785195
 C    0.511048598752   -0.932138315112    1.889999785195
 O    0.269048598752    1.210861684888    2.947999785195
 H   -2.195951401248    0.095861684888   -0.668000214805
 H   -1.570951401248    1.637861684888    1.142999785195
 H   -0.809951401248   -3.443138315112   -0.909000214805
 H   -0.668951401248   -2.105138315112   -2.032000214805
 H    0.608048598752   -2.791138315112    0.834999785195
 H    1.271048598752   -1.216138315112    2.604999785195
 H    0.946048598752    0.856861684888    3.529999785195
 H   -2.273446401248   -2.534578315112   -1.389691214805
