24
0 1 
 C   -2.475089294276    2.665759028665    1.566610689249
 C   -1.909089294276    3.164759028665    2.902610689249
 H   -3.473089294276    3.062759028665    1.406610689249
 H   -1.842089294276    3.009759028665    0.748610689249
 H   -2.511089294276    1.575759028665    1.555610689249
 H   -2.006089294276    4.250759028665    2.911610689249
 H   -2.474729294276    2.730859028665    3.740330689249
 H   -0.843979294276    2.908729028665    3.002580689249
 C    2.564910705724    1.221759028665    0.216610689249
 C    0.233910705724    0.269759028665    0.185610689249
 C    1.574910705724    0.144759028665   -0.177389310751
 C   -0.714089294276   -0.691240971335   -0.212389310751
 C    1.957910705724   -0.912240971335   -1.006389310751
 C   -0.313089294276   -1.759240971335   -0.997389310751
 C    1.018910705724   -1.868240971335   -1.412389310751
 O   -1.256089294276   -2.662240971335   -1.408389310751
 H   -0.081089294276    1.108759028665    0.784610689249
 H   -1.747089294276   -0.601240971335    0.087610689249
 H    3.458910705724    0.741759028665    0.612610689249
 H    2.143910705724    1.841759028665    1.008610689249
 H    2.985910705724   -1.003240971335   -1.328389310751
 H    1.322910705724   -2.686240971335   -2.049389310751
 H   -0.945089294276   -3.171240971335   -2.186389310751
 H    2.858060705724    1.861099028665   -0.629149310751
