26
1 1 
 C    1.600473988039   -0.889743506254   -2.356129800549
 C   -0.709526011961   -0.221743506254   -1.609129800549
 C    0.432473988039   -0.994743506254   -1.412129800549
 C   -1.785526011961   -0.327743506254   -0.738129800549
 C   -1.717526011961   -1.206743506254    0.340870199451
 C    0.485473988039   -1.867743506254   -0.333129800549
 C   -0.581526011961   -1.970743506254    0.541870199451
 H   -0.767526011961    0.455256493746   -2.451129800549
 H   -2.675526011961    0.265256493746   -0.900129800549
 H    2.527473988039   -0.961743506254   -1.788129800549
 H    1.590473988039    0.099256493746   -2.816129800549
 H   -2.552526011961   -1.285743506254    1.024870199451
 H    1.364473988039   -2.474743506254   -0.172129800549
 H   -0.530526011961   -2.640743506254    1.388870199451
 H    1.604773988039   -1.646133506254   -3.154779800549
 C    0.856473988039    1.692256493746    1.360870199451
 C    0.862473988039    1.725256493746    2.882870199451
 N    0.103473988039    2.843256493746    0.783870199451
 H    1.891473988039    1.705256493746    1.003870199451
 H    0.400473988039    0.751256493746    1.031870199451
 H   -0.166526011961    1.737256493746    3.248870199451
 H    1.370473988039    2.629256493746    3.226870199451
 H    0.110473988039    2.813256493746   -0.229129800549
 H   -0.863526011961    2.839256493746    1.081870199451
 H    0.510473988039    3.727256493746    1.063870199451
 H    1.376823988039    0.843206493746    3.292060199451
