23
0 1 
 C   -0.242755316489    3.880582322591    0.035224725982
 C    0.844244683511    4.955582322591   -0.040775274018
 H   -1.219755316489    4.327582322591   -0.138775274018
 H   -0.063755316489    3.125582322591   -0.727775274018
 H   -0.227755316489    3.405582322591    1.014224725982
 H    1.807244683511    4.480582322591    0.137224725982
 H    0.659546583511    5.700122322591    0.747604725982
 H    0.853669983511    5.418872322591   -1.038405274018
 C    0.562244683511   -3.534417677409   -1.091775274018
 C   -0.609755316489    0.148582322591    0.819224725982
 C   -1.336755316489   -1.021417677409    1.037224725982
 C    0.508244683511    0.120582322591   -0.008775274018
 C   -0.945755316489   -2.213417677409    0.432224725982
 C    0.885244683511   -1.076417677409   -0.630775274018
 C    0.163244683511   -2.246417677409   -0.414775274018
 H   -0.916755316489    1.072582322591    1.288224725982
 H   -2.199755316489   -1.012417677409    1.686224725982
 H    1.076244683511    1.023582322591   -0.181775274018
 H   -1.513755316489   -3.114417677409    0.610224725982
 H    1.743244683511   -1.086417677409   -1.289775274018
 H    0.350244683511   -4.370417677409   -0.422775274018
 H    1.640244683511   -3.519417677409   -1.261775274018
 H    0.056659463511   -3.702228677409   -2.054175274018
