37
0 1 
 C   -0.744560176035    2.158957013131   -0.792805382119
 C   -1.515560176035    3.236957013131   -1.525805382119
 C    0.117439823965    4.347957013131   -0.162805382119
 C    0.759439823965    0.948957013131    1.386194617881
 C    0.912439823965    2.439957013131    1.060194617881
 O    1.604439823965    3.184957013131    1.775194617881
 N    0.201439823965    2.909957013131    0.035194617881
 H   -1.429560176035    1.565957013131   -0.184805382119
 H   -0.216560176035    1.519957013131   -1.488805382119
 H   -2.443560176035    3.444957013131   -0.991805382119
 H   -1.739560176035    2.929957013131   -2.544805382119
 H    1.092439823965    4.827957013131   -0.205805382119
 H    0.573439823965    0.382957013131    0.475194617881
 H   -0.865200176035    4.123807013131   -1.502735382119
 H   -0.410470176035    4.433896013131   -1.124015382119
 H   -0.513020176035    4.789062013131    0.623294617881
 H    1.637069823965    0.533676013131    1.903204617881
 H   -0.067270176035    0.798385013131    2.096034617881
 C   -0.627560176035   -3.061042986869    2.581194617881
 C   -0.472560176035   -2.131042986869    0.137194617881
 C    0.088439823965   -2.721042986869    1.322194617881
 C    0.563439823965   -2.103042986869   -0.838805382119
 C    1.386439823965   -2.999042986869    1.049194617881
 C   -1.935560176035   -1.117042986869   -1.512805382119
 C   -0.871560176035   -1.108042986869   -2.440805382119
 C   -1.747560176035   -1.662042986869   -0.224805382119
 C    0.385439823965   -1.568042986869   -2.101805382119
 N    1.675439823965   -2.617042986869   -0.235805382119
 H   -2.908560176035   -0.748042986869   -1.802805382119
 H   -1.046560176035   -0.726042986869   -3.436805382119
 H   -2.564560176035   -1.703042986869    0.451194617881
 H    1.198439823965   -1.556042986869   -2.812805382119
 H   -1.217560176035   -2.213042986869    2.918194617881
 H    0.100439823965   -3.299042986869    3.358194617881
 H    2.079439823965   -3.480042986869    1.733194617881
 H    2.570439823965   -2.766042986869   -0.697805382119
 H   -1.293710176035   -3.922742986869    2.427194617881
