18
0 1 
 C    1.979974432840   -2.561352654312    1.901534348477
 C    1.909974432840   -1.099352654312    1.499534348477
 O    2.860974432840   -0.323352654312    1.674534348477
 N    0.792974432840   -0.718352654312    0.970534348477
 H    0.785974432840    0.233647345688    0.622534348477
 H   -0.081025567160   -1.153352654312    1.211534348477
 H    1.875974432840   -2.552352654312    2.989534348477
 H    2.986974432840   -2.936352654312    1.699534348477
 H    1.200674432840   -3.223142654312    1.495664348477
 C   -1.683025567160   -0.041352654312   -0.534465651523
 C   -2.643025567160    2.321647345688   -1.505465651523
 S   -1.387025567160    1.081647345688   -1.865465651523
 H   -1.090025567160   -0.935352654312   -0.706465651523
 H   -2.737025567160   -0.328352654312   -0.535465651523
 H   -1.450025567160    0.427647345688    0.420534348477
 H   -3.572025567160    1.819647345688   -1.231465651523
 H   -2.834025567160    2.923647345688   -2.382465651523
 H   -2.314689567160    2.959516345688   -0.671605651523
