18
0 1 
 C   -0.513056839368   -0.357037805649    2.089431517019
 C   -1.353056839368    0.954962194351    1.818431517019
 O   -0.688056839368   -1.380037805649    1.102431517019
 H    0.542943160632   -0.096037805649    2.163431517019
 H   -0.809056839368   -0.760037805649    3.059431517019
 H   -1.085056839368    1.341962194351    0.838431517019
 H   -0.162056839368   -2.145037805649    1.384431517019
 H   -1.156286839368    1.707132194351    2.596591517019
 H   -2.428166839368    0.723072194351    1.837331517019
 C    1.126943160632    1.052962194351   -2.354568482981
 C    0.649943160632    0.241962194351   -1.217568482981
 O    1.287943160632    0.253962194351   -0.153568482981
 N   -0.398056839368   -0.542037805649   -1.438568482981
 H    0.326943160632    1.205962194351   -3.079568482981
 H    1.905943160632    0.483962194352   -2.862568482981
 H   -0.737056839368   -1.064037805649   -0.640568482981
 H   -0.876056839368   -0.551037805649   -2.322568482981
 H    1.550433160632    2.019172194351   -2.042978482981
