30
0 1 
 C    0.180701216612    1.219026291957    1.409304801677
 C    1.390701216612    2.098026291957    1.724304801677
 C    0.074701216612    0.805026291957   -0.021695198323
 C   -0.618298783388    1.435026291957   -1.010695198323
 C    0.688701216612   -0.341973708043   -0.628695198323
 C    0.317701216612   -0.345973708043   -2.000695198323
 C    1.516701216612   -1.367973708043   -0.153695198323
 C    0.745701216612   -1.326973708043   -2.887695198323
 C    1.942701216612   -2.356973708043   -1.040695198323
 C    1.563701216612   -2.329973708043   -2.391695198323
 N   -0.478298783388    0.750026291957   -2.195695198323
 H    0.202701216612    0.331026291957    2.032304801677
 H   -0.716298783388    1.787026291957    1.650304801677
 H    1.386701216612    2.961026291957    1.057304801677
 H   -1.181298783388    2.352026291957   -0.880695198323
 H   -0.792298783388    1.091026291957   -3.108695198323
 H    1.845701216612   -1.366973708043    0.871304801677
 H    0.472701216612   -1.283973708043   -3.931695198323
 H    2.586701216612   -3.138973708043   -0.677695198323
 H    1.979701216612   -3.063973708043   -3.057695198323
 H    2.315351216612    1.509200291957    1.633194801677
 H    1.358701216612    2.439833291957    2.769361801677
 C   -2.462298783388    0.562026291957    3.737304801677
 C   -3.960298783388    0.500026291957    4.010304801677
 H   -2.240298783388    1.486026291957    3.210304801677
 H   -1.909298783388    0.562026291957    4.676304801677
 H   -2.159298783388   -0.289973708043    3.132304801677
 H   -4.243298783388    1.423026291957    4.515304801677
 H   -4.509628783388    0.399887891957    3.062566801677
 H   -4.187248783388   -0.346339508043    4.675254801677
