20
0 1 
 C   -2.171246252809    0.366912435457   -2.534589722877
 C    0.800753747191   -0.616087564543   -0.645589722877
 C   -1.166246252809   -0.188087564543   -1.542589722877
 C   -1.369246252809   -0.920087564543   -0.411589722877
 N    0.203753747191   -0.010087564543   -1.677589722877
 N   -0.123246252809   -1.176087564543    0.131410277123
 H    1.858753747191   -0.626087564543   -0.454589722877
 H    0.044753747191   -1.662087564543    1.013410277123
 H   -2.324246252809   -1.214087564543   -0.005589722877
 H   -2.099246252809    1.447912435457   -2.504589722877
 H   -3.152246252809    0.079912435457   -2.176589722877
 H   -2.021556252809    0.037162435457   -3.573269722877
 C    1.315753747191    1.136912435457    2.433410277123
 C    2.248753747191    1.181912435457    3.626410277123
 H    1.842753747191    0.748912435457    1.564410277123
 H    0.469753747191    0.485912435457    2.647410277123
 H    0.942753747191    2.135912435457    2.209410277123
 H    2.620753747191    0.178912435457    3.837410277123
 H    3.080913747191    1.868472435457    3.411591277123
 H    1.684173747191    1.552172435457    4.494831277123
