15
0 1 
 C    1.614804955886   -1.417372329538    2.434960303423
 O    1.019804955886   -0.782372329538    1.313960303423
 H    0.908804955886    0.159627670462    1.509960303423
 H    0.974804955886   -1.225372329538    3.295960303423
 H    2.585804955886   -0.967372329538    2.636960303423
 H    1.721894955886   -2.505547329538    2.314930303423
 C   -0.798195044114    0.918627670462   -0.781039696577
 C   -2.137195044114    1.131627670462   -1.472039696577
 O    0.126804955886    0.278627670462   -1.639039696577
 H   -0.393195044114    1.884627670462   -0.474039696577
 H   -0.956195044114    0.302627670462    0.104960303423
 H   -2.542195044114    0.157627670462   -1.736039696577
 H    0.069804955886   -0.688372329538   -1.520039696577
 H   -2.009635044114    1.741658670462   -2.378456696577
 H   -2.833445044114    1.599658670462   -0.760574696577
