24
0 1 
 C   -0.928764862962    1.568656822337   -2.240132985672
 C   -0.652764862962   -0.181343177663   -0.413132985672
 C   -0.601764862962    1.156656822337   -0.825132985672
 C   -0.365764862962   -0.539343177663    0.909867014328
 C   -0.230764862962    2.126656822337    0.108867014328
 C   -0.003764862962    0.443656822337    1.814867014328
 C    0.061235137038    1.774656822337    1.425867014328
 O    0.287235137038    0.100656822337    3.100867014328
 H   -0.942764862962   -0.949343177663   -1.117132985672
 H   -0.417764862962   -1.570343177663    1.230867014328
 H   -0.553764862962    2.581656822337   -2.368132985672
 H   -0.281764862962    0.951656822337   -2.886132985672
 H   -0.153764862962    3.160656822337   -0.191132985672
 H    0.352235137038    2.536656822337    2.136867014328
 H    0.495235137038    0.871656822337    3.641867014328
 H   -2.006931862962    1.603926822337   -2.455332985672
 C    0.892235137038   -2.582343177663   -2.568132985672
 C    1.211235137038   -3.216343177663   -1.220132985672
 H   -0.062764862962   -2.942343177663   -2.953132985672
 H    0.829235137038   -1.497343177663   -2.471132985672
 H    1.687235137038   -2.811343177663   -3.278132985672
 H    0.351235137038   -3.107343177663   -0.562132985672
 H    1.442162137038   -4.281773177663   -1.366892985672
 H    2.072496137038   -2.703483177663   -0.767142985672
