23
0 1 
 C   -0.687818915045    0.144141794298    1.613744006890
 C   -0.529818915045    1.183141794298    2.699744006890
 C   -1.057818915045    0.762141794298    0.291744006890
 O   -1.026818915045    1.986141794298    0.113744006890
 N   -1.417818915045   -0.081858205702   -0.659255993110
 H    0.242181084955   -0.402858205702    1.519744006890
 H   -1.472818915045   -0.560858205702    1.897744006890
 H    0.275181084955    1.854141794298    2.391744006890
 H   -1.767818915045    0.311141794298   -1.530255993110
 H   -1.553818915045   -1.061858205702   -0.462255993110
 H   -0.239098915045    0.701405794298    3.644954006890
 H   -1.445168915045    1.779666794298    2.827414006890
 C    1.197181084955   -1.136858205702   -0.991255993110
 C    1.194181084955   -0.819858205702   -2.507255993110
 C    2.332181084955   -1.994858205702   -0.437255993110
 H    1.197181084955   -0.196858205702   -0.447255993110
 H    0.305181084955   -1.729858205702   -0.799255993110
 H    0.302181084955   -0.236858205702   -2.738255993110
 H    1.108181084955   -1.761858205702   -3.051255993110
 H    2.405181084955   -2.902858205702   -1.046255993110
 H    3.281181084955   -1.454858205702   -0.529255993110
 H    2.066417084955   -0.280487205702   -2.905105993110
 H    2.142946084955   -2.268998205702    0.611094006890
