16
0 1 
 C   -1.415778700194    0.511446623703   -0.898342773399
 C   -2.222778700194   -0.330553376297   -1.937342773399
 H   -0.648778700194    1.105446623703   -1.393342773399
 H   -2.098778700194    1.181446623703   -0.379342773399
 H   -0.967778700194   -0.165553376297   -0.172342773399
 H   -2.658778700194    0.383446623703   -2.634342773399
 H   -3.035778700194   -0.816553376297   -1.396342773399
 H   -1.644709700194   -1.092783376297   -2.480332773399
 C    1.457221299806    0.565446623703    1.365657226601
 C    2.192221299806   -0.750553376297    1.470657226601
 H    2.160221299806    1.387446623703    1.484657226601
 H    0.986221299806    0.660446623703    0.392657226601
 H    0.694221299806    0.620446623703    2.143657226601
 H    1.454221299806   -1.551553376297    1.475657226601
 H    2.811677699806   -0.797653376297    2.378432226601
 H    2.818432099806   -0.864413376297    0.573497226601
