23
-1 1 
 C    0.841867173163    0.069268309811    4.460842233003
 C   -0.397132826837   -0.116731690189    3.613842233003
 O   -0.411132826837    0.289268309811    2.435842233003
 O   -1.353132826837   -0.686731690189    4.182842233003
 H    1.003867173163   -0.813731690189    5.080842233003
 H    0.663867173163    0.916268309811    5.126842233003
 H    1.751707173163    0.272338309811    3.876922233003
 C   -1.132132826837   -0.634731690189   -4.538157766997
 C   -0.507132826837    0.024268309811   -0.864157766997
 C   -1.133132826837   -0.300731690189   -2.056157766997
 C    0.805867173163    0.384268309811   -0.838157766997
 C   -0.429132826837   -0.294731690189   -3.250157766997
 C    1.522867173163    0.439268309811   -2.010157766997
 C    0.908867173163    0.100268309811   -3.225157766997
 O    1.341867173163    0.699268309811    0.386842233003
 H   -1.068132826837    0.102268309811    0.042842233003
 H   -2.185132826837   -0.558731690189   -2.051157766997
 H    0.685867173163    0.553268309811    1.098842233003
 H    2.557867173163    0.742268309811   -1.988157766997
 H   -1.587132826837   -1.618731690189   -4.417157766997
 H   -0.407132826837   -0.699731690189   -5.349157766997
 H    1.478867173163    0.141268309811   -4.143157766997
 H   -1.915598826837    0.097698309811   -4.782537766997
