27
0 1 
 C    2.047927721341    2.754946705607   -2.295641768114
 C    2.310927721341    3.185946705607   -0.848641768114
 H    1.054927721341    3.056946705607   -2.621641768114
 H    2.108927721341    1.669946705607   -2.367641768114
 H    2.792927721341    3.194946705607   -2.960641768114
 H    1.568927721341    2.743946705607   -0.188641768114
 H    2.261580721341    4.282316705607   -0.774261768114
 H    3.299784721341    2.823506705607   -0.531151768114
 C   -0.963072278659    1.655946705607   -0.317641768114
 C   -2.417072278659    1.712946705607   -0.869641768114
 C   -0.599072278659    0.278946705607    0.154358231886
 C   -0.081072278659   -0.648053294393   -0.745641768114
 C   -0.801072278659   -0.107053294393    1.470358231886
 C    0.251927721341   -1.929053294393   -0.360641768114
 C   -0.480072278659   -1.410053294393    1.863358231886
 C    0.046927721341   -2.324053294393    0.940358231886
 O    0.344927721341   -3.596053294393    1.304358231886
 H   -0.294072278659    1.932946705607   -1.126641768114
 H   -0.845072278659    2.372946705607    0.496358231886
 H   -2.496072278659    0.945946705607   -1.641641768114
 H    0.069927721341   -0.357053294393   -1.777641768114
 H   -1.230072278659    0.589946705607    2.177358231886
 H    0.653927721341   -2.631053294393   -1.075641768114
 H   -0.653072278659   -1.718053294393    2.884358231886
 H    0.111927721341   -3.767053294393    2.222358231886
 H   -2.595605878659    2.699776705607   -1.321621768114
 H   -3.142175378659    1.481806705607   -0.075411768114
