33
0 1 
 C   -2.444273551264   -1.756295064611   -1.646516241187
 C   -3.462273551264   -1.018295064611   -2.516516241187
 C   -2.324273551264   -1.217295064611   -0.235516241187
 H   -2.619273551264   -2.822295064611   -1.648516241187
 H   -1.463273551264   -1.615295064611   -2.101516241187
 H   -3.514273551264    0.025704935389   -2.193516241187
 H   -1.342273551264   -1.510295064611    0.120483758813
 H   -2.350273551264   -0.127295064611   -0.247516241187
 H   -4.448223551264   -1.504868064611   -2.482622241187
 H   -3.141163551264   -1.017575064611   -3.568603241187
 H   -3.034203551264   -1.607061064611    0.508853758813
 C    1.177726448736   -0.439295064611   -1.995516241187
 C    2.553726448736    0.018704935389   -2.524516241187
 C    1.056726448736   -0.470295064611   -0.522516241187
 C    1.315726448736   -1.536295064611    0.275483758813
 C    0.640726448736    0.587704935389    0.326483758813
 C    0.653726448736    0.085704935389    1.663483758813
 C    0.253726448736    1.911704935389    0.102483758813
 C    0.302726448736    0.864704935389    2.758483758813
 C   -0.115273551264    2.705704935389    1.197483758813
 C   -0.082273551264    2.186704935389    2.515483758813
 N    1.068726448736   -1.214295064611    1.583483758813
 H    0.391726448736    0.201704935389   -2.392516241187
 H    0.992726448736   -1.446295064611   -2.370516241187
 H    2.585726448736   -0.163295064611   -3.600516241187
 H    1.651726448736   -2.506295064611   -0.079516241187
 H    1.227726448736   -1.841295064611    2.365483758813
 H    0.221726448736    2.291704935389   -0.899516241187
 H    0.333726448736    0.464704935389    3.762483758813
 H   -0.424273551264    3.731704935389    1.039483758813
 H   -0.364273551264    2.822704935389    3.345483758813
 H    3.388166448736   -0.500665064611   -2.030588241187
 H    2.697546448736    1.097354935389   -2.363819241187
