20
0 1 
 C   -0.617441984566   -0.961026501816    0.008032962777
 C   -0.591441984566   -2.104026501816   -1.009967037223
 C   -1.790441984566   -1.111026501816    0.957032962777
 O    0.557558015434   -1.008026501816    0.797032962777
 H   -0.683441984566   -0.001026501816   -0.507967037223
 H   -1.508441984566   -2.035026501816   -1.590967037223
 H   -1.705441984566   -0.398026501816    1.775032962777
 H   -2.721441984566   -0.960026501816    0.412032962777
 H   -1.807441984566   -2.092026501816    1.410032962777
 H    0.563558015434   -0.240026501816    1.373032962777
 H   -0.511996784566   -3.079104501816   -0.507064037223
 H    0.235044615434   -1.985749501816   -1.726158637223
 C    1.015558015434    2.535973498184    0.313032962777
 C    1.334558015434    2.597973498184   -1.170967037223
 H   -0.035441984566    2.773973498184    0.475032962777
 H    1.223558015434    1.538973498184    0.692032962777
 H    1.633558015434    3.250973498184    0.857032962777
 H    0.635558015434    1.941973498184   -1.688967037223
 H    2.364506015434    2.250357498184   -1.339399737223
 H    1.199047015434    3.627709498184   -1.533294837223
