23
0 1 
 C    0.527992583534    3.349204738083   -1.438002552220
 C   -0.935007416466    3.628204738083   -1.678002552220
 H    0.724992583534    3.229204738083   -0.372002552220
 H    0.806992583534    2.438204738083   -1.963002552220
 H    1.138992583534    4.160204738083   -1.836002552220
 H   -1.102007416466    3.677204738083   -2.754002552220
 H   -1.107377416466    4.607584738083   -1.207784552220
 H   -1.605237416466    2.875614738083   -1.237097552220
 C    1.329992583534    0.516204738083    1.786997447780
 C    0.343992583534   -0.338795261917   -0.379002552220
 C    0.590992583534   -0.515795261917    0.969997447780
 C   -0.444007416466   -1.269795261917   -1.071002552220
 C    0.084992583534   -1.630795261917    1.593997447780
 C   -0.936007416466   -2.372795261917   -0.421002552220
 C   -0.654007416466   -2.575795261917    0.908997447780
 H    0.728992583534    0.527204738083   -0.889002552220
 H   -0.686007416466   -1.140795261917   -2.111002552220
 H    0.952992583534    0.483204738083    2.810997447780
 H    1.108992583534    1.511204738083    1.395997447780
 H    0.272992583534   -1.782795261917    2.647997447780
 H   -1.543007416466   -3.086795261917   -0.959002552220
 H   -1.026007416466   -3.452795261917    1.414997447780
 H    2.419012583534    0.362684738083    1.808619447780
