24
0 1 
 C    1.301446805924    1.100854021629   -0.134168803636
 C    1.633446805924    2.148854021629    0.936831196364
 C   -0.162553194076    0.721854021629   -0.260168803636
 C   -0.963553194076    0.464854021629    0.868831196364
 C   -0.741553194076    0.566854021629   -1.544168803636
 C   -2.363553194076    0.124854021629    0.728831196364
 C   -2.104553194076    0.190854021629   -1.689168803636
 C   -2.931553194076    0.002854021629   -0.537168803636
 H    1.646446805924    1.447854021629   -1.107168803636
 H    1.867446805924    0.223854021629    0.109831196364
 H    1.458446805924    1.715854021629    1.923831196364
 H   -0.541553194076    0.544854021629    1.860831196364
 H   -0.141553194076    0.724854021629   -2.431168803636
 H   -2.970553194076   -0.046145978371    1.608831196364
 H   -2.528553194076    0.074854021629   -2.679168803636
 H   -3.975553194076   -0.260145978371   -0.648168803636
 H    1.028596805924    3.060954521629    0.826251196364
 H    2.707186805924    2.372789021629    0.853571196364
 C    2.313446805924   -2.671145978371    1.224831196364
 O    2.570446805924   -1.956145978371    0.027831196364
 H    1.741446805924   -1.881145978371   -0.464168803636
 H    1.258446805924   -2.936145978371    1.286831196364
 H    2.937166805924   -3.577002978371    1.204781196364
 H    2.571016805924   -1.981090978371    2.041831196364
