24
0 1 
 C    2.615423187617   -0.098209159930   -2.741314709813
 C    3.034423187617    1.367790840070   -2.636314709813
 H    2.763423187617   -0.430209159930   -3.768314709813
 H    3.227423187617   -0.707209159930   -2.076314709813
 H    1.570423187617   -0.231209159930   -2.467314709813
 H    2.906423187617    1.689790840070   -1.601314709813
 H    2.410625187617    1.998012840070   -3.287234709813
 H    4.097566187617    1.470791840070   -2.899219209813
 C    1.478423187617    0.901790840070    2.262685290187
 C    0.530423187617   -0.330209159930    0.274685290187
 C    0.317423187617    0.359790840070    1.465685290187
 C   -0.540576812383   -0.847209159930   -0.448314709813
 C   -0.983576812383    0.499790840070    1.938685290187
 C   -1.836576812383   -0.688209159930    0.031685290187
 C   -2.059576812383   -0.013209159930    1.226685290187
 O   -2.893576812383   -1.186209159930   -0.659314709813
 H    1.540423187617   -0.469209159930   -0.088314709813
 H   -0.384576812383   -1.372209159930   -1.377314709813
 H    1.226423187617    1.899790840070    2.621685290187
 H    2.355423187617    0.993790840070    1.620685290187
 H   -1.162576812383    1.026790840070    2.864685290187
 H   -3.062576812383    0.106790840070    1.610685290187
 H   -3.712576812383   -1.118209159930   -0.167314709813
 H    1.715741187617    0.250429840070    3.116740290187
