19
0 1 
 C    1.419764950449    1.415064247032   -1.370892041314
 C    0.933764950449    1.312064247032   -2.863892041314
 H    1.959764950449    2.344064247032   -1.194892041314
 H    0.548764950449    1.430064247032   -0.723892041314
 H    2.053764950449    0.566064247032   -1.113892041314
 H    0.249764950449    2.136064247032   -3.041892041314
 H    1.744644950449    1.402164247032   -3.601702041314
 H    0.396824950449    0.373134247032   -3.064162041314
 C   -0.603235049551   -0.838935752968    0.921107958686
 C   -2.038235049551   -1.312935752968    1.184107958686
 C    0.250764950449   -0.642935752968    2.198107958686
 H   -0.101235049551   -1.540935752968    0.254107958686
 H   -0.638235049551    0.126064247032    0.429107958686
 H   -2.469235049551   -0.712935752968    1.985107958686
 H    0.382764950449   -1.585935752968    2.726107958686
 H    1.231764950449   -0.272935752968    1.907107958686
 H   -0.226235049551    0.084064247032    2.854107958686
 H   -2.646575049551   -1.173685752968    0.278277958686
 H   -2.043905049551   -2.369415752968    1.490414958686
