16
-1 1 
 C    0.542140768777   -1.377490310242   -1.267389284974
 C    0.478140768777   -2.907490310242   -1.107389284974
 O    1.775140768777   -0.966490310242   -1.875389284974
 H   -0.292859231223   -1.050490310242   -1.889389284974
 H    0.452140768777   -0.903490310242   -0.291389284974
 H    0.539140768777   -3.369490310242   -2.092389284974
 H    1.696140768777   -0.030490310242   -2.116389284974
 H   -0.470099231223   -3.170639310242   -0.615875284974
 H    1.329200768777   -3.227649310242   -0.488366984974
 C   -0.498859231223    0.425509689758    2.212610715026
 C   -0.781859231223    1.377509689758    1.056610715026
 O   -1.926859231223    1.662509689758    0.680610715026
 O    0.219140768777    1.869509689758    0.522610715026
 H    0.130140768777    0.944509689758    2.938610715026
 H    0.054140768777   -0.438490310242    1.843610715026
 H   -1.407009231223    0.081709689758    2.729391715026
