24
0 1 
 C    3.282295369636   -0.944840578626   -0.987549847815
 C    3.510295369636    0.420159421374   -0.361549847815
 H    3.471295369636   -0.895840578626   -2.058549847815
 H    3.956295369636   -1.669840578626   -0.535549847815
 H    2.252295369636   -1.253840578626   -0.818549847815
 H    4.542295369636    0.746159421374   -0.506549847815
 H    2.828335369636    1.145559421374   -0.829219847815
 H    3.294705369636    0.341359421374    0.714240152185
 C   -2.472704630364    2.416159421374   -0.746549847815
 C   -0.482704630364   -0.843840578626   -0.764549847815
 C   -0.246704630364   -1.043840578626    0.601450152185
 C   -1.165704630364    0.308159421374   -1.171549847815
 C   -1.621704630364    1.255159421374   -0.249549847815
 C   -0.675704630364   -0.099840578626    1.541450152185
 C   -1.372704630364    1.047159421374    1.114450152185
 O    0.368295369636   -2.185840578626    1.026450152185
 H   -0.146704630364   -1.565840578626   -1.498549847815
 H   -1.355704630364    0.481159421374   -2.221549847815
 H   -0.440704630364   -0.249840578626    2.587450152185
 H    0.450295369636   -2.229840578626    1.991450152185
 H   -3.505704630364    2.247159421374   -0.433549847815
 H   -2.435704630364    2.435159421374   -1.834549847815
 H   -1.720704630364    1.766159421374    1.842450152185
 H   -2.207334630364    3.454259421374   -0.497499847815
