32
0 1 
 C   -3.631576801189    3.340923107743    4.068616157843
 C   -0.757576801189    1.295923107743    1.503616157843
 C   -1.979576801189    1.715923107743    1.016616157843
 C   -0.432576801189    1.561923107743    2.849616157843
 C   -2.896576801189    2.366923107743    1.857616157843
 C   -1.349576801189    2.239923107743    3.704616157843
 C   -2.609576801189    2.634923107743    3.207616157843
 O    0.174423198811    0.693923107743    0.693616157843
 H   -0.241576801189    0.415923107743   -0.124383842157
 H   -2.236576801189    1.541923107743   -0.017383842157
 H    0.532423198811    1.255923107743    3.227616157843
 H   -3.858576801189    2.643923107743    1.469616157843
 H   -1.079576801189    2.448923107743    4.730616157843
 H   -3.212576801189    3.545923107743    5.055616157843
 H   -4.474576801189    2.662923107743    4.187616157843
 H   -3.969117801189    4.276603107743    3.598966157843
 C    1.594423198811    0.819923107743   -3.318383842157
 C    0.638423198811   -1.072076892257   -1.925383842157
 C    1.606423198811   -0.623076892257   -2.844383842157
 C    0.695423198811   -2.382076892257   -1.439383842157
 C    2.639423198811   -1.507076892257   -3.223383842157
 C    1.667423198811   -3.258076892257   -1.877383842157
 C    2.686423198811   -2.831076892257   -2.730383842157
 O    1.708423198811   -4.514076892257   -1.381383842157
 H   -0.174576801189   -0.423076892257   -1.646383842157
 H    0.066423198811   -2.800076892257   -0.694383842157
 H    0.615423198811    1.266923107743   -3.140383842157
 H    1.778423198811    0.830923107743   -4.391383842157
 H    3.420423198811   -1.161076892257   -3.882383842157
 H    3.483423198811   -3.497076892257   -3.030383842157
 H    2.446423198811   -5.021076892257   -1.735383842157
 H    2.372588198811    1.406913107743   -2.808573842157
