30
0 1 
 C    0.095826961885   -2.229669304708   -2.279088767965
 C    0.998826961885   -0.198669304708    0.751911232035
 C    0.232826961885   -1.223669304708    0.141911232035
 C    0.629826961885   -1.294669304708   -1.237088767965
 C    1.587826961885   -0.343669304708   -1.405088767965
 C    0.862826961885    0.137330695292    2.089911232035
 C   -0.057173038115   -0.567669304708    2.840911232035
 C   -0.695173038115   -1.922669304708    0.923911232035
 C   -0.830173038115   -1.587669304708    2.268911232035
 N    1.814826961885    0.316330695292   -0.220088767965
 H    2.503826961885    1.049330695292   -0.089088767965
 H    1.461826961885    0.920330695292    2.526911232035
 H    2.084826961885   -0.129669304708   -2.341088767965
 H   -0.165173038115   -0.333669304708    3.890911232035
 H   -1.294173038115   -2.704669304708    0.481911232035
 H    0.337826961885   -1.826669304708   -3.264088767965
 H   -0.992173038115   -2.251669304708   -2.191088767965
 H   -1.543173038115   -2.121669304708    2.884911232035
 H    0.478720961885   -3.258159304708   -2.204238767965
 C   -1.418173038115    2.257330695292   -0.641088767965
 C   -0.803173038115    3.643330695292   -0.425088767965
 C   -2.008173038115    2.048330695292   -2.026088767965
 H   -0.665173038115    1.495330695292   -0.467088767965
 H   -2.220173038115    2.104330695292    0.075911232035
 H   -1.531173038115    4.399330695292   -0.721088767965
 H   -1.253173038115    2.146330695292   -2.799088767965
 H   -2.436173038115    1.047330695292   -2.087088767965
 H   -2.794173038115    2.778330695292   -2.180088767965
 H   -0.561935038115    3.782510695292    0.639071232035
 H    0.091892961885    3.772740695292   -1.051278767965
