24
0 1 
 C    0.000659795183    0.230749491634   -3.090950218636
 C    0.990659795183    0.436749491634    0.575049781364
 C    0.698659795183    0.788749491634   -0.741950218636
 C    0.925659795183   -0.894250508366    0.964049781364
 C    0.327659795183   -0.181250508366   -1.675950218636
 C    0.563659795183   -1.877250508366    0.059049781364
 C    0.276659795183   -1.519250508366   -1.263950218636
 O    1.216659795183   -1.237250508366    2.250049781364
 H    1.281659795183    1.198749491634    1.286049781364
 H    0.775659795183    1.822749491634   -1.041950218636
 H    1.424659795183   -0.466250508366    2.791049781364
 H    0.511659795183   -2.908250508366    0.380049781364
 H    0.375659795183    1.243749491634   -3.218950218636
 H    0.647659795183   -0.386250508366   -3.736950218636
 H   -0.013340204817   -2.287250508366   -1.967950218636
 H   -1.077507204817    0.266019491634   -3.306150218636
 C   -2.287340204817    1.668749491634    1.894049781364
 C   -2.292340204817    2.159749491634    0.435049781364
 H   -2.562340204817    2.483749491634    2.566049781364
 H   -3.004340204817    0.855749491634    2.008049781364
 H   -1.295340204817    1.302749491634    2.159049781364
 H   -2.025340204817    1.326749491634   -0.218950218636
 H   -1.573361204817    2.981109491634    0.299289781364
 H   -3.296091204817    2.525469491634    0.172889781364
