23
0 1 
 C    3.021242657051   -1.591191087915    0.267440840169
 C   -0.650757342949    0.479808912085    1.059440840169
 C   -0.583757342949   -0.447191087915    0.031440840169
 C    0.474242657051    0.728808912085    1.837440840169
 C    0.607242657051   -1.116191087915   -0.224559159831
 C    1.664242657051    0.058808912085    1.579440840169
 C    1.734242657051   -0.872191087915    0.549440840169
 H   -1.575757342949    0.996808912085    1.273440840169
 H   -1.449757342949   -0.677191087915   -0.560559159831
 H    0.428242657051    1.449808912085    2.639440840169
 H    0.653242657051   -1.833191087915   -1.031559159831
 H    2.533242657051    0.266808912085    2.185440840169
 H    3.842242657051   -0.923191087915    0.535440840169
 H    3.103242657051   -1.799191087915   -0.796559159831
 H    3.133555657051   -2.550174087915    0.794450840169
 C   -3.086757342949    1.163808912085   -1.487559159831
 C   -2.636757342949    1.380808912085   -2.926559159831
 H   -2.318757342949    1.552808912085   -0.823559159831
 H   -3.999757342949    1.730808912085   -1.305559159831
 H   -3.276757342949    0.116808912085   -1.267559159831
 H   -1.838757342949    0.670808912085   -3.101559159831
 H   -2.284757342949    2.405808912085   -3.042559159831
 H   -3.417065342949    1.149098912085   -3.666439159831
