23
0 1 
 C    2.476074730648    1.619004634067    1.277908180353
 C   -0.044925269352   -1.043995365933    0.370908180353
 C   -1.136925269352   -0.596995365933    1.092908180353
 C    1.143074730648   -0.320995365933    0.450908180353
 C    1.210074730648    0.817004634067    1.238908180353
 C   -1.083925269352    0.537004634067    1.888908180353
 C    0.098074730648    1.254004634067    1.968908180353
 H   -0.113925269352   -1.926995365933   -0.248091819647
 H   -2.063925269352   -1.150995365933    1.038908180353
 H    2.005074730648   -0.645995365933   -0.114091819647
 H   -1.954925269352    0.858004634067    2.440908180353
 H    2.212074730648    2.676004634067    1.238908180353
 H    3.038074730648    1.401004634067    0.367908180353
 H    0.151074730648    2.146004634067    2.576908180353
 H    3.150384730648    1.457487634067    2.131848180353
 C   -0.673925269352   -0.750995365933   -3.295091819647
 C   -1.884925269352   -1.376995365933   -3.956091819647
 H   -0.949925269352   -0.346995365933   -2.320091819647
 H    0.105074730648   -1.501995365933   -3.162091819647
 H   -0.278925269352    0.049004634067   -3.917091819647
 H   -1.584925269352   -1.719995365933   -4.940091819647
 H   -2.717787269352   -0.666487365933   -4.063421819647
 H   -2.219924269352   -2.259783365933   -3.391771819647
