27
0 1 
 C    2.985389912252    1.849110240347   -0.794650298622
 C    0.647389912252    1.007110240347    0.065349701378
 C    1.586389912252    2.038110240347   -0.286650298622
 C   -0.558610087748    1.646110240347    0.454349701378
 C    0.912389912252    3.210110240347   -0.114650298622
 C   -0.405610087748   -1.127889759653    0.489349701378
 C   -1.573610087748   -0.456889759653    0.866349701378
 C    0.723389912252   -0.397889759653    0.081349701378
 C   -1.672610087748    0.920110240347    0.857349701378
 N   -0.365610087748    2.990110240347    0.335349701378
 H   -0.363610087748   -2.202889759653    0.530349701378
 H   -2.433610087748   -1.035889759653    1.164349701378
 H    1.632389912252   -0.903889759653   -0.208650298622
 H   -2.581610087748    1.419110240347    1.148349701378
 H    3.001389912252    2.169110240347   -1.836650298622
 H    3.231389912252    0.786110240347   -0.778650298622
 H    1.320389912252    4.191110240347   -0.334650298622
 H   -1.097610087748    3.703110240347    0.409349701378
 H    3.763149912252    2.407022240347   -0.252600298622
 C   -0.894610087748   -4.835889759653   -0.169650298622
 C   -1.308610087748   -5.599889759653   -1.427650298622
 H   -0.055610087748   -4.179889759653   -0.399650298622
 H   -1.737610087748   -4.249889759653    0.194349701378
 H   -0.595610087748   -5.530889759653    0.610349701378
 H   -2.098610087748   -6.299889759653   -1.157650298622
 H   -0.452841087748   -6.143486759653   -1.854450298622
 H   -1.706426087748   -4.863892759653   -2.141830298622
