23
0 1 
 C   -0.353354692069    3.464084174686   -1.093913572891
 C    0.077645307931    3.540084174686   -2.555913572891
 H   -1.295354692069    2.927084174686   -1.001913572891
 H    0.404645307931    2.921084174686   -0.533913572891
 H   -0.454354692069    4.462084174686   -0.676913572891
 H    0.169645307931    2.523084174686   -2.935913572891
 H   -0.649315692069    4.089439174686   -3.172143572891
 H    1.060191307931    4.028104174686   -2.636163572891
 C    1.817645307931   -1.973915825314   -0.872913572891
 C   -0.694354692069    0.340084174686    0.794086427109
 C   -1.296354692069   -0.514915825314    1.710086427109
 C    0.312645307931   -0.132915825314   -0.042913572891
 C    0.729645307931   -1.457915825314    0.033086427109
 C   -0.891354692069   -1.838915825314    1.788086427109
 C    0.113645307931   -2.307915825314    0.951086427109
 H   -1.008354692069    1.372084174686    0.739086427109
 H   -2.078354692069   -0.176915825314    2.368086427109
 H    0.775645307931    0.536084174686   -0.753913572891
 H   -1.362354692069   -2.504915825314    2.496086427109
 H    2.265645307931   -1.150915825314   -1.431913572891
 H    1.355645307931   -2.647915825314   -1.594913572891
 H    0.400645307931   -3.347915825314    1.016086427109
 H    2.609171307931   -2.525759825314   -0.344753572891
