24
0 1 
 C   -0.685660441090    1.783448779328    1.910254410738
 C   -1.247660441090    1.613448779328    3.318254410738
 H   -0.175660441090    2.735448779328    1.793254410738
 H    0.024339558910    0.982448779328    1.704254410738
 H   -1.494660441090    1.734448779328    1.181254410738
 H   -0.407660441090    1.574448779328    4.013254410738
 H   -1.892312441090    2.461218779328    3.593404410738
 H   -1.798533441090    0.664238779328    3.392714410738
 C   -0.632660441090   -3.039551220672    0.388254410738
 C   -1.060660441090   -0.843551220672   -0.771745589262
 C   -0.159660441090   -1.720551220672   -0.175745589262
 C   -0.653660441090    0.367448779328   -1.297745589262
 C    1.182339558910   -1.348551220672   -0.126745589262
 C    0.678339558910    0.731448779328   -1.254745589262
 C    1.594339558910   -0.140551220672   -0.682745589262
 O    1.049339558910    1.935448779328   -1.782745589262
 H   -2.104660441090   -1.078551220672   -0.818745589262
 H   -1.373660441090    1.041448779328   -1.741745589262
 H   -1.710660441090   -3.002551220672    0.533254410738
 H   -0.188660441090   -3.154551220672    1.378254410738
 H    1.905339558910   -2.006551220672    0.336254410738
 H    2.637339558910    0.136448779328   -0.644745589262
 H    2.030339558910    2.042448779328   -1.781745589262
 H   -0.377110441090   -3.925801220672   -0.211125589262
