16
0 1 
 C    0.478191203849   -0.676476722078    1.412446858495
 C    0.455191203849   -1.082476722078    2.889446858495
 H   -0.496808796151   -0.288476722078    1.115446858495
 H    1.231191203849    0.097523277922    1.263446858495
 H    0.745191203849   -1.522476722078    0.779446858495
 H    1.421191203849   -1.514476722078    3.139446858495
 H   -0.336758796151   -1.819392722078    3.088866858495
 H    0.287101203849   -0.201602722078    3.526476858495
 C   -0.261808796151    0.145523277922   -2.202553141505
 C   -0.676808796151    1.613523277922   -2.103553141505
 H    0.316191203849   -0.037476722078   -3.108553141505
 H    0.368191203849   -0.108476722078   -1.349553141505
 H   -1.139808796151   -0.500476722078   -2.194553141505
 H   -1.122808796151    1.769523277922   -1.121553141505
 H   -1.411728796151    1.856095277922   -2.885255141505
 H    0.201191203849    2.268605277922   -2.203505141505
