23
0 1 
 C   -0.697987591349    3.324611633839    0.122847639412
 C   -1.443987591349    4.548611633839   -0.394152360588
 H    0.206012408651    3.153611633839   -0.455152360588
 H   -0.416987591349    3.492611633839    1.160847639412
 H   -1.343987591349    2.449611633839    0.054847639412
 H   -0.781987591349    5.409611633839   -0.351152360588
 H   -1.767007591349    4.364439633839   -1.429400360588
 H   -2.320727591349    4.753928633839    0.237647639412
 C    2.258012408651    0.252611633839    0.118847639412
 C   -0.168987591349   -0.290388366161    0.547847639412
 C    1.086012408651   -0.693388366161    0.086847639412
 C   -1.260987591349   -1.163388366161    0.488847639412
 C    1.238012408651   -1.983388366161   -0.428152360588
 C   -1.100987591349   -2.447388366161   -0.031152360588
 C    0.152012408651   -2.858388366161   -0.491152360588
 H   -0.294987591349    0.693611633839    0.971847639412
 H   -2.229987591349   -0.855388366161    0.849847639412
 H    3.137012408651   -0.326388366161    0.398847639412
 H    2.102012408651    0.998611633839    0.893847639412
 H    2.201012408651   -2.318388366161   -0.771152360588
 H   -1.944987591349   -3.123388366161   -0.077152360588
 H    0.285012408651   -3.851388366161   -0.891152360588
 H    2.441952408651    0.762746733839   -0.838194360588
