23
0 1 
 C    1.076224233133   -3.234470431232   -1.085324242852
 C    1.358224233133   -3.899470431232    0.263675757148
 H    1.693224233133   -3.686470431232   -1.858324242852
 H    0.029224233133   -3.377470431232   -1.344324242852
 H    1.305224233133   -2.173470431232   -1.022324242852
 H    1.190224233133   -4.968470431232    0.138675757148
 H    2.390204233133   -3.752146431232    0.614825757148
 H    0.637994233133   -3.535078431232    1.010995757148
 C    1.850224233133    1.850529568768   -0.484324242852
 C   -0.134775766867    0.334529568768   -0.733324242852
 C    0.458224233133    1.429529568768   -0.117324242852
 C   -1.400775766867   -0.070470431232   -0.373324242852
 C   -2.087775766867    0.641529568768    0.611675757148
 C   -0.229775766867    2.136529568768    0.875675757148
 C   -1.515775766867    1.746529568768    1.239675757148
 H    0.392224233133   -0.196470431232   -1.510324242852
 H   -1.851775766867   -0.931470431232   -0.844324242852
 H    1.986224233133    2.898529568768   -0.244324242852
 H    1.946224233133    1.736529568768   -1.552324242852
 H   -3.080775766867    0.323529568768    0.901675757148
 H    0.233224233133    2.986529568768    1.358675757148
 H   -2.058775766867    2.285529568768    2.002675757148
 H    2.640794233133    1.260299568768    0.002125757148
