16
0 1 
 C   -1.799693764509   -0.087519638651   -0.980838198302
 C   -1.769693764509   -1.597519638651   -0.768838198302
 H   -1.901693764509    0.148480361349   -2.041838198302
 H   -2.640693764509    0.340480361349   -0.435838198302
 H   -0.877693764509    0.356480361349   -0.609838198302
 H   -1.645693764509   -1.774519638651    0.300161801698
 H   -0.942553764509   -2.047659638651   -1.337338198302
 H   -2.714773764509   -2.061007638651   -1.088238198302
 C    1.689306235491    0.111480361349    0.686161801698
 C    1.881306235491    1.573480361349    1.057161801698
 H    1.561306235491    0.004480361349   -0.392838198302
 H    2.551306235491   -0.472519638651    1.012161801698
 H    0.804306235491   -0.276519638651    1.189161801698
 H    2.089306235491    1.602480361349    2.122161801698
 H    0.975566235491    2.160257361349    0.844261801698
 H    2.726726235491    2.020502361349    0.513661801698
