20
0 1 
 C    0.151940459788   -0.030094454600   -1.099551572305
 C    0.374940459788    0.256905545400   -2.520551572305
 C    1.422940459788    0.233905545400   -0.306551572305
 O    2.410940459788   -0.497094454600   -0.363551572305
 N    1.363940459788    1.246905545400    0.502448427695
 H   -0.668059540212    0.583905545400   -0.722551572305
 H   -0.120059540212   -1.078094454600   -0.967551572305
 H    1.216940459788   -0.328094454600   -2.886551572305
 H    0.636940459788    1.314905545400   -2.596551572305
 H    2.189940459788    1.467905545400    1.038448427695
 H    0.520940459788    1.790905545400    0.608448427695
 H   -0.536121540212    0.049205545400   -3.100921572305
 C   -2.085059540212   -0.817094454600    1.826448427695
 C   -3.528059540212   -0.435094454600    1.813448427695
 H   -1.837059540212   -1.326094454600    2.757448427695
 H   -1.883059540212   -1.493094454600    0.995448427695
 H   -1.460059540212    0.069905545400    1.722448427695
 H   -4.137059540212   -1.335094454600    1.893448427695
 H   -3.729059540212    0.008905545400    0.839448427695
 H   -3.790406540212    0.263065545400    2.621998427695
