34
0 1 
 C   -1.796989513873   -0.947678899174   -1.364475306311
 C   -3.177989513873   -0.412678899174   -1.711475306311
 C   -1.712989513873   -1.347678899174    0.085524693689
 C   -1.598989513873   -2.687678899174    0.436524693689
 C   -1.747989513873   -0.383678899174    1.089524693689
 C   -1.534989513873   -3.062678899174    1.787524693689
 C   -1.672989513873   -0.744678899174    2.435524693689
 C   -1.582989513873   -2.089678899174    2.778524693689
 O   -1.493989513873   -2.482678899174    4.062524693689
 H   -1.573989513873   -1.808678899174   -1.996475306311
 H   -1.051989513873   -0.181678899174   -1.558475306311
 H   -3.270989513873    0.558321100826   -1.240475306311
 H   -1.575989513873   -3.449678899174   -0.332475306311
 H   -1.820989513873    0.661321100826    0.822524693689
 H   -1.472989513873   -4.101678899174    2.054524693689
 H   -1.696989513873    0.001321100826    3.214524693689
 H   -1.405989513873   -3.429678899174    4.138524693689
 H   -3.961607513873   -1.068068329174   -1.303545306311
 H   -3.259495513873   -0.237295499174   -2.794345306311
 C    4.811010486127    2.053321100826   -1.991475306311
 C    1.035010486127    1.509321100826   -2.177475306311
 C    0.615010486127    2.163321100826   -1.027475306311
 C    2.407010486127    1.425321100826   -2.472475306311
 C    3.342010486127    2.047321100826   -1.636475306311
 C    1.545010486127    2.761321100826   -0.195475306311
 C    2.903010486127    2.712321100826   -0.499475306311
 H    0.312010486127    1.060321100826   -2.843475306311
 H   -0.438989513873    2.216321100826   -0.787475306311
 H    2.731010486127    0.906321100826   -3.362475306311
 H    1.213010486127    3.278321100826    0.694524693689
 H    5.066010486127    1.111321100826   -2.480475306311
 H    5.396010486127    2.128321100826   -1.078475306311
 H    3.613010486127    3.190321100826    0.159524693689
 H    5.094460486127    2.895789100826   -2.639475306311
