15
0 1 
 C   -3.027049775319   -0.345806887279    0.571967527038
 N   -2.118049775319    0.822193112721    0.950967527038
 H   -2.325049775319    1.653193112721    0.412967527038
 H   -2.240049775319    1.059193112721    1.928967527038
 H   -1.130049775319    0.578193112721    0.833967527038
 H   -4.070049775319   -0.078806887279    0.773967527038
 H   -2.784049775319   -1.225806887279    1.175967527038
 H   -2.935396855319   -0.609308887279   -0.492062472962
 C    0.994950224681   -1.250806887279   -1.249032472962
 C    1.391950224681   -0.078806887279   -0.384032472962
 O    0.738950224681    0.182193112721    0.656967527038
 O    2.403950224681    0.558193112721   -0.709032472962
 H    0.821950224681   -0.891806887279   -2.265032472962
 H    0.074950224681   -1.667806887279   -0.865032472962
 H    1.758708224681   -2.042401887279   -1.256172472962
