20
0 1 
 C    2.658903975871   -0.885711601073    0.474765082625
 C    3.401903975871    0.210288398927   -0.284234917375
 H    3.113903975871   -1.855711601073    0.315765082625
 H    2.695903975871   -0.672711601073    1.541765082625
 H    1.618903975871   -0.914711601073    0.161765082625
 H    4.458903975871    0.169288398927   -0.020234917375
 H    3.275023975871    0.066207398927   -1.367351917375
 H    3.025353975871    1.200442398927    0.012088082625
 C   -1.186096024129    2.089288398927    0.976765082625
 C   -1.128096024129   -1.409711601073   -0.007234917375
 C   -1.109096024129    0.775288398927    0.252765082625
 C   -1.016096024129    0.513288398927   -1.077234917375
 N   -1.178096024129   -0.441711601073    0.898765082625
 N   -1.030096024129   -0.857711601073   -1.211234917375
 H   -1.192096024129   -2.473711601073    0.194765082625
 H   -1.087096024129   -1.366711601073   -2.092234917375
 H   -0.991096024129    1.245288398927   -1.873234917375
 H   -0.700096024129    2.845288398927    0.364765082625
 H   -0.627096024129    2.011288398927    1.908765082625
 H   -2.215136024129    2.408076398927    1.199124882625
