20
0 1 
 C   -2.429626186728    2.493540196464    2.906208824070
 C   -1.472626186728    1.412540196464    2.438208824070
 O   -1.556626186728    1.040540196464    1.248208824070
 O   -0.637626186728    0.947540196464    3.248208824070
 H   -3.448626186728    2.179540196464    2.685208824070
 H   -2.228626186728    3.408540196464    2.346208824070
 H   -2.351836186728    2.693050196464    3.985163824070
 C    2.288373813272   -0.547459803536   -3.509791175930
 C    0.947373813272   -1.318459803536   -1.580791175930
 N    0.014373813272   -1.079459803536   -0.680791175930
 N    1.266373813272   -0.390459803536   -2.467791175930
 N    1.557373813272   -2.487459803536   -1.589791175930
 H   -0.405626186728   -0.168459803536   -0.580791175930
 H   -0.195626186728   -1.772459803536    0.017208824070
 H    0.717373813272    0.454540196464   -2.460791175930
 H    2.282373813272   -2.656459803536   -2.265791175930
 H    1.319373813272   -3.196459803536   -0.915791175930
 H    1.952373813272   -1.291459803536   -4.234791175930
 H    3.216373813272   -0.904459803536   -3.075791175930
 H    2.468953813272    0.395180196464   -4.047206175930
