25
0 1 
 C   -1.787515023296   -2.263835234181   -1.682653672590
 C   -2.652515023296   -3.318835234181   -2.341653672590
 O   -1.018515023296   -1.631835234181   -2.664653672590
 H   -2.421515023296   -1.530835234181   -1.181653672590
 H   -1.128515023296   -2.728835234181   -0.949653672590
 H   -3.256515023296   -3.796835234181   -1.569653672590
 H   -0.238515023296   -2.188835234181   -2.822653672590
 H   -2.019353023296   -4.080895234181   -2.819540672590
 H   -3.332065023296   -2.843875234181   -3.064579672590
 C    1.878484976704   -1.618835234181    0.318346327410
 C    0.153484976704    0.192164765819    0.047346327410
 C    1.308484976704   -0.261835234181    0.676346327410
 C   -0.386515023296    1.432164765819    0.344346327410
 C    0.250484976704    2.262164765819    1.255346327410
 C    1.943484976704    0.580164765819    1.595346327410
 C    1.411484976704    1.834164765819    1.896346327410
 O   -0.285515023296    3.486164765819    1.490346327410
 H   -0.350515023296   -0.437835234181   -0.656653672590
 H   -1.335515023296    1.662164765819   -0.092653672590
 H    1.075484976704   -2.353835234181    0.363346327410
 H    2.632484976704   -1.901835234181    1.053346327410
 H    2.827484976704    0.241164765819    2.114346327410
 H   -1.198515023296    3.547164765819    1.209346327410
 H    1.881484976704    2.474164765819    2.627346327410
 H    2.325072976704   -1.648705234181   -0.686473672590
