23
0 1 
 C    0.774418112854   -2.196462106296   -1.870421862813
 C   -0.142581887146   -3.362462106296   -1.735421862813
 H    1.738418112854   -2.492462106296   -2.286421862813
 H    0.321418112854   -1.452462106296   -2.525421862813
 H    0.926418112854   -1.741462106296   -0.892421862813
 H   -1.149581887146   -3.017462106296   -1.499421862813
 H    0.194948112854   -4.061576106296   -0.956121862813
 H   -0.141801887146   -3.870320106296   -2.711171862813
 C    0.540418112854    0.001537893704    2.756578137187
 C    0.742418112854    1.187537893704   -0.816421862813
 C   -0.582581887146    1.567537893704   -1.059421862813
 C    1.090418112854    0.676537893704    0.426578137187
 C    0.128418112854    0.558537893704    1.428578137187
 C   -1.540581887146    1.489537893704   -0.067421862813
 C   -1.186581887146    0.975537893704    1.181578137187
 H    1.485418112854    1.273537893704   -1.598421862813
 H   -0.854581887146    1.954537893704   -2.033421862813
 H    2.110418112854    0.366537893704    0.607578137187
 H   -2.557581887146    1.807537893704   -0.261421862813
 H    0.086418112854    0.603537893704    3.544578137187
 H    1.624418112854    0.086537893704    2.854578137187
 H   -1.933581887146    0.903537893704    1.960578137187
 H    0.247678112854   -1.050460106296    2.889248137187
