19
0 1 
 C    0.221593926989   -1.177811573128   -1.257337630406
 C    0.704593926989    0.202188426872   -1.720337630406
 C    1.338593926989   -2.169811573128   -0.903337630406
 H   -0.424406073011   -1.053811573128   -0.388337630406
 H   -0.386406073011   -1.620811573128   -2.048337630406
 H    1.274593926989    0.675188426872   -0.919337630406
 H    1.941593926989   -2.375811573128   -1.787337630406
 H   -0.150306073011    0.849408426872   -1.965787630406
 H    1.366383926989    0.094538426872   -2.592367630406
 H    1.986243926989   -1.754391573128   -0.117217630406
 H    0.891723926989   -3.116981573128   -0.566917630406
 C   -0.955406073011    0.818188426872    1.695662369594
 C   -1.289406073011    2.251188426872    2.105662369594
 H   -0.697406073011    0.219188426872    2.570662369594
 H   -1.811406073011    0.368188426872    1.192662369594
 H   -0.105406073011    0.827188426872    1.014662369594
 H   -1.580406073011    2.806188426872    1.215662369594
 H   -0.398896073011    2.726978426872    2.542242369594
 H   -2.143676073011    2.260548426872    2.798582369594
