15
0 1 
 C   -1.675306081849    0.581083711507    2.194711584456
 C   -1.093306081849    0.193083711507    0.875711584456
 O    0.154693918151    0.189083711507    0.818711584456
 O   -1.847306081849   -0.016916288493   -0.084288415544
 H   -1.482306081849    1.644083711507    2.353711584456
 H   -1.191306081849    0.024083711507    2.998711584456
 H   -2.759026081849    0.396663711507    2.233871584456
 C    2.025693918151   -0.117916288493   -2.472288415544
 N    2.075693918151   -0.725916288493   -1.118288415544
 H    1.238693918151   -0.483916288493   -0.574288415544
 H    2.149693918151   -1.734916288493   -1.163288415544
 H    2.869693918151   -0.383916288493   -0.590288415544
 H    1.269693918151   -0.624916288493   -3.078288415544
 H    2.990693918151   -0.251916288493   -2.972288415544
 H    1.782533918151    0.954593711507   -2.447678415544
