23
0 1 
 C    2.004238596483    0.931937449034   -1.924460243105
 C   -1.008761403517   -0.994062550966   -0.560460243105
 C   -0.209761403517   -0.091062550966   -1.275460243105
 C   -0.417761403517   -1.906062550966    0.320539756895
 C    1.201238596483   -0.071062550966   -1.151460243105
 C    0.995238596483   -1.902062550966    0.482539756895
 C    1.815238596483   -0.979062550966   -0.270460243105
 H   -2.078761403517   -0.977062550966   -0.684460243105
 H   -0.698761403517    0.623937449034   -1.922460243105
 H   -1.030761403517   -2.602062550966    0.877539756895
 H    1.461238596483   -2.603062550966    1.163539756895
 H    2.981238596483    1.032937449034   -1.451460243105
 H    1.504238596483    1.896937449034   -1.852460243105
 H    2.890238596483   -0.983062550966   -0.148460243105
 H    2.140021596483    0.668187449034   -2.983710243105
 C   -2.529761403517    1.582937449034    1.830539756895
 C   -1.446761403517    2.617937449034    2.137539756895
 H   -3.204761403517    1.452937449034    2.673539756895
 H   -3.112761403517    1.911937449034    0.971539756895
 H   -2.072761403517    0.622937449034    1.597539756895
 H   -1.925761403517    3.575937449034    2.328539756895
 H   -0.898841403517    2.294527449034    3.034861756895
 H   -0.754011403517    2.736207449034    1.291310756895
