26
0 1 
 C   -0.030531806655   -1.529753002523   -0.525496455845
 C    1.050468193345   -2.211753002523   -1.388496455845
 C    0.514468193345   -0.547753002523    0.450503544155
 C    0.707468193345    0.788246997477    0.096503544155
 C    0.851468193345   -0.975753002523    1.749503544155
 C    1.233468193345    1.693246997477    1.036503544155
 C    1.386468193345   -0.084753002523    2.693503544155
 C    1.577468193345    1.252246997477    2.347503544155
 H   -0.748531806655   -1.033753002523   -1.171496455845
 H   -0.576531806655   -2.288753002523    0.028503544155
 H    0.550468193345   -2.966753002523   -1.999496455845
 H    0.420468193345    1.137246997477   -0.884496455845
 H    0.676468193345   -2.005753002523    2.018503544155
 H    1.349468193345    2.731246997477    0.759503544155
 H    1.633468193345   -0.430753002523    3.688503544155
 H    1.979468193345    1.950246997477    3.068503544155
 H    1.834718193345   -2.669357002523   -0.767566455845
 H    1.585638193345   -1.531478002523   -2.067336455845
 C   -2.519531806655    0.797246997477   -2.316496455845
 C   -3.890531806655    0.970246997477   -3.024496455845
 H   -2.015531806655   -0.076753002523   -2.724496455845
 H   -1.901531806655    1.677246997477   -2.489496455845
 H   -2.664531806655    0.669246997477   -1.243496455845
 H   -4.363531806655    1.875246997477   -2.649496455845
 H   -4.504991806655    0.091126997477   -2.780416455845
 H   -3.741111806655    1.068216997477   -4.109886455845
