27
0 1 
 C   -1.401203011851    0.631126785169   -2.419623682639
 C   -2.388203011851   -0.143873214831   -3.316623682639
 C   -1.950203011851    1.887126785169   -1.714623682639
 H   -1.104203011851   -0.093873214831   -1.666623682639
 H   -0.528203011851    0.902126785169   -3.014623682639
 H   -2.508203011851    0.392126785169   -4.259623682639
 H   -2.768203011851    1.587126785169   -1.060623682639
 H   -3.366633011851   -0.229943214831   -2.821373682639
 H   -1.979423011851   -1.134563214831   -3.564473682639
 H   -1.173023011851    2.377336785169   -1.109913682639
 H   -2.373423011851    2.585606785169   -2.451513682639
 C   -0.145203011851    0.877126785169    3.562376317361
 C   -0.016203011851   -1.235873214831    0.363376317361
 C    1.203796988149   -0.871873214831   -0.204623682639
 C   -0.409203011851   -0.704873214831    1.610376317361
 C    0.399796988149    0.181126785169    2.312376317361
 C    2.068796988149   -0.013873214831    0.516376317361
 C    1.645796988149    0.507126785169    1.771376317361
 O    1.436796988149   -1.281873214831   -1.495623682639
 H   -0.663203011851   -1.916873214831   -0.172623682639
 H   -1.363203011851   -0.975873214831    2.042376317361
 H    3.074796988149    0.162126785169    0.150376317361
 H    2.236796988149   -0.913873214831   -1.879623682639
 H    0.682796988149    1.164126785169    4.209376317361
 H   -0.791203011851    0.183126785169    4.109376317361
 H    2.282796988149    1.167126785169    2.331376317361
 H   -0.649343011851    1.832936785169    3.356746317361
