19
0 1 
 C   -1.170059812526    1.282587435274   -1.629506689522
 C   -0.827059812526    1.139587435274   -3.105506689522
 H   -1.703059812526    2.217587435274   -1.450506689522
 H   -1.800059812526    0.448587435274   -1.315506689522
 H   -0.263059812526    1.265587435274   -1.023506689522
 H   -0.289059812526    0.205587435274   -3.264506689522
 H   -0.219009812526    1.995147435274   -3.434566689522
 H   -1.776449812526    1.122957435274   -3.660826689522
 C    0.596940187474   -0.855412564726    1.043493310478
 C   -0.127059812526    0.142587435274    1.970493310478
 C    1.577940187474   -1.767412564726    1.794493310478
 H   -0.143059812526   -1.470412564726    0.527493310478
 H    1.147940187474   -0.293412564726    0.288493310478
 H   -0.794059812526    0.742587435274    1.349493310478
 H    2.248940187474   -1.177412564726    2.417493310478
 H    1.003940187474   -2.437412564726    2.437493310478
 H    0.578430187474    0.824167435274    2.468223310478
 H   -0.770279812526   -0.382562564726    2.691943310478
 H    2.175160187474   -2.369652564726    1.094033310478
