24
0 1 
 C    2.215093958719   -1.565242350307    1.175685658971
 C    2.125093958719   -3.092242350307    1.235685658971
 H    3.247093958719   -1.267242350307    1.265685658971
 H    1.820093958719   -1.193242350307    0.232685658971
 H    1.620093958719   -1.088242350307    1.953685658971
 H    1.077093958719   -3.372242350307    1.149685658971
 H    2.527983958719   -3.457342350307    2.191921658971
 H    2.682333958719   -3.547642350307    0.403766658971
 C   -0.225906041281    3.162757649693    1.139685658971
 C   -1.315906041281   -0.386242350307    0.263685658971
 C   -0.792906041281   -0.532242350307   -1.019314341029
 C   -1.121906041281    0.810757649693    0.958685658971
 C   -0.406906041281    1.868757649693    0.384685658971
 C   -0.078906041281    0.514757649693   -1.607314341029
 C    0.112093958719    1.708757649693   -0.901314341029
 O   -0.979906041281   -1.705242350307   -1.690314341029
 H   -1.863906041281   -1.201242350307    0.713685658971
 H   -1.529906041281    0.917757649693    1.955685658971
 H    0.333093958719    0.391757649693   -2.595314341029
 H   -0.587906041281   -1.686242350307   -2.570314341029
 H    0.738093958719    3.611757649693    0.892685658971
 H   -0.204906041281    2.912757649693    2.198685658971
 H    0.662093958719    2.512757649693   -1.353314341029
 H   -1.040176041281    3.884237649693    0.977118658971
