23
0 1 
 C    1.882022029210   -2.435526224445   -0.892636871294
 C   -0.730977970790    0.254473775555   -0.018636871294
 C   -1.530977970790   -0.390526224445    0.916363128706
 C    0.386022029210   -0.398526224445   -0.641636871294
 C    0.690022029210   -1.710526224445   -0.299636871294
 C   -1.233977970790   -1.704526224445    1.243363128706
 C   -0.128977970790   -2.348526224445    0.633363128706
 H   -0.992977970790    1.253473775555   -0.249636871294
 H   -2.365977970790    0.122473775555    1.375363128706
 H    0.998022029210    0.113473775555   -1.375636871294
 H   -1.849977970790   -2.218526224445    1.966363128706
 H    2.476022029210   -2.810526224445   -0.057636871294
 H    2.469022029210   -1.699526224445   -1.442636871294
 H    0.113022029210   -3.370526224445    0.883363128706
 H    1.616382029210   -3.256726224445   -1.574586871294
 C    0.348022029210    3.427473775555   -0.978636871294
 C    0.016022029210    4.343473775555    0.264363128706
 H    1.258022029210    2.852473775555   -0.796636871294
 H   -0.468977970790    2.761473775555   -1.177636871294
 H    0.486022029210    4.032473775555   -1.876636871294
 H   -0.884977970790    4.921473775555    0.072363128706
 H    0.875272029210    5.019673775555    0.384713128706
 H   -0.123487970790    3.741973775555    1.174743128706
