20
0 1 
 C   -0.094537496340    1.349284640273   -0.004661663054
 C   -1.582537496340    1.703284640273    0.037338336946
 C    0.302462503660    0.662284640273   -1.297661663054
 O   -0.479537496340   -0.072715359727   -1.904661663054
 N    1.535462503660    0.893284640273   -1.727661663054
 H    0.489462503660    2.264284640273    0.116338336946
 H    0.160462503660    0.704284640273    0.825338336946
 H   -2.154537496340    0.812284640273   -0.236661663054
 H    1.838462503660    0.449284640273   -2.582661663054
 H    2.161462503660    1.486284640273   -1.202661663054
 H   -1.804785496340    2.500364340273   -0.687416663054
 H   -1.890273496340    1.995128240273    1.052289476946
 C    0.007462503660   -1.548715359727    2.047338336946
 C    0.243462503660   -2.861715359727    2.780338336946
 H   -0.512537496340   -0.846715359727    2.699338336946
 H    0.980462503660   -1.127715359727    1.790338336946
 H   -0.561537496340   -1.703715359727    1.129338336946
 H    0.898462503660   -2.657715359727    3.628338336946
 H   -0.699227496340   -3.276242359727    3.166991336946
 H    0.750032503660   -3.575262359727    2.113830336946
