26
0 1 
 C   -1.854333784367   -0.244867046537   -1.805247911609
 C   -3.139333784367   -1.094867046537   -1.742247911609
 C   -1.471333784367    0.383132953463   -3.145247911609
 H   -1.921333784367    0.550132953463   -1.063247911609
 H   -1.025333784367   -0.891867046537   -1.516247911609
 H   -3.199333784367   -1.725867046537   -2.632247911609
 H   -1.382333784367   -0.402867046537   -3.894247911609
 H   -4.014923784367   -0.435932046537   -1.646617911609
 H   -3.087863784367   -1.724790046537   -0.841947911609
 H   -2.243773784367    1.093078953463   -3.475877911609
 H   -0.480903784367    0.843631953463   -3.014887911609
 C   -0.570333784367    0.814132953463    1.668752088391
 C   -0.721333784367    0.209132953463    3.070752088391
 C    0.693666215633    0.400132953463    0.973752088391
 C    1.809666215633    1.120132953463    0.679752088391
 C    2.139666215633   -0.934867046537   -0.009247911609
 N    0.930666215633   -0.880867046537    0.539752088391
 N    2.701666215633    0.265132953463    0.061752088391
 H   -1.427333784367    0.527132953463    1.067752088391
 H   -0.568333784367    1.903132953463    1.741752088391
 H    0.164666215633    0.469132953463    3.652752088391
 H    1.968666215633    2.165132953463    0.912752088391
 H    2.611666215633   -1.829867046537   -0.374247911609
 H    3.651666215633    0.480132953463   -0.219247911609
 H   -0.848313784367   -0.883325046537    3.050466088391
 H   -1.591843784367    0.654221953463    3.574846088391
