20
0 1 
 C   -1.173024003993   -2.850435468616    1.278142098744
 C   -1.789024003993   -1.623435468616    0.611142098744
 O   -1.042024003993   -0.726435468616    0.159142098744
 O   -3.035024003993   -1.568435468616    0.528142098744
 H   -1.335024003993   -3.710435468616    0.625142098744
 H   -1.689024003993   -3.053435468616    2.217142098744
 H   -0.091114003993   -2.768805468616    1.459292098744
 C    2.734975996007   -0.133435468616   -0.448857901256
 C    1.072975996007    1.710564531384   -0.521857901256
 N    1.391975996007    0.442564531384   -0.311857901256
 N    1.991975996007    2.583564531384   -0.884857901256
 N   -0.177024003993    2.100564531384   -0.377857901256
 H    0.603975996007   -0.177435468616   -0.105857901256
 H    2.955975996007    2.315564531384   -1.000857901256
 H    1.722975996007    3.533564531384   -1.092857901256
 H   -0.861024003993    1.383564531384   -0.138857901256
 H   -0.461024003993    3.056564531384   -0.524857901256
 H    2.723975996007   -1.127435468616    0.004142098744
 H    3.469975996007    0.465564531384    0.092142098744
 H    3.035825996007   -0.237075468616   -1.501827901256
