29
0 1 
 C   -0.003764175285   -1.758117997837    3.194536627933
 C    1.035235824715    0.943882002163    0.709536627933
 C    0.390235824715    0.268882002163    1.760536627933
 C    1.997235824715    0.259882002163   -0.041463372067
 C    0.700235824715   -1.066117997837    2.050536627933
 C    2.309235824715   -1.070117997837    0.250536627933
 C    1.682235824715   -1.729117997837    1.296536627933
 H    0.786235824715    1.972882002163    0.489536627933
 H   -0.359764175285    0.783882002163    2.342536627933
 H    2.513235824715    0.747882002163   -0.853463372067
 H    3.063235824715   -1.585117997837   -0.324463372067
 H    0.068235824715   -1.143117997837    4.093536627933
 H    0.512235824715   -2.694117997837    3.400536627933
 H    1.939235824715   -2.757117997837    1.514536627933
 H   -1.067188175285   -1.955233997837    2.993846627933
 C   -1.747764175285    0.989882002163   -1.778463372067
 C   -3.288764175285    0.897882002163   -1.976463372067
 C   -0.991764175285   -0.234117997837   -2.299463372067
 C   -1.187764175285    2.228882002163   -2.470463372067
 H   -1.547764175285    1.080882002163   -0.709463372067
 H   -3.686764175285    1.896882002163   -1.827463372067
 H   -1.054764175285   -0.302117997837   -3.387463372067
 H    0.057235824715   -0.171117997837   -2.011463372067
 H   -1.416764175285   -1.130117997837   -1.858463372067
 H   -0.119764175285    2.234882002163   -2.310463372067
 H   -1.353764175285    2.163882002163   -3.544463372067
 H   -3.778734375285    0.279322002163   -1.210103372067
 H   -3.591554175285    0.603060002163   -2.992041372067
 H   -1.614603175285    3.169082002163   -2.091211372067
