15
0 1 
 C    2.571826275393   -0.876459227670    1.545682530027
 N    2.385826275393   -0.083459227670    0.302682530027
 H    1.379826275393    0.020540772330    0.127682530027
 H    2.767826275393    0.847540772330    0.401682530027
 H    2.814826275393   -0.523459227670   -0.500317469973
 H    2.006826275393   -0.411459227670    2.359682530027
 H    3.628826275393   -0.872459227670    1.829682530027
 H    2.244856275393   -1.922196227670    1.448102530027
 C   -2.683173724607    0.392540772330    0.011682530027
 C   -1.271173724607    0.249540772330   -0.519317469973
 O   -0.358173724607    0.178540772330    0.326682530027
 O   -1.055173724607    0.169540772330   -1.757317469973
 H   -2.800173724607    1.382540772330    0.458682530027
 H   -2.852173724607   -0.362459227670    0.783682530027
 H   -3.447853724607    0.267410772330   -0.769097469973
