23
0 1 
 C    2.098323785025   -0.229321892078    1.221190324716
 C    0.824323785025    0.269678107922    1.870190324716
 O    0.232323785025   -0.442321892078    2.697190324716
 N    0.369323785025    1.444678107922    1.484190324716
 H    2.867323785025    0.524678107922    1.358190324716
 H    1.940323785025   -0.359321892078    0.152190324716
 H   -0.475676214975    1.838678107922    1.865190324716
 H    0.918323785025    1.951678107922    0.798190324716
 H    2.436483785025   -1.169548892078    1.681209324716
 C   -0.777676214975   -0.309321892078   -1.501809675284
 C   -1.211676214975   -1.710321892078   -1.955809675284
 C    0.342323785025    0.164678107922   -2.401809675284
 C   -1.907676214975    0.718678107922   -1.457809675284
 H   -0.377676214975   -0.391321892078   -0.495809675284
 H   -0.368676214975   -2.396321892078   -1.857809675284
 H   -1.471676214975   -1.654321892078   -3.013809675284
 H   -0.005676214975    0.234678107922   -3.430809675284
 H    0.670323785025    1.152678107922   -2.085809675284
 H    1.185323785025   -0.523321892078   -2.344809675284
 H   -2.616676214975    0.454678107922   -0.675809675284
 H   -1.494676214975    1.698678107922   -1.224809675284
 H   -2.420676214975    0.754678107922   -2.418809675284
 H   -2.079556214975   -2.120093892078   -1.418343675284
