16
0 1 
 C    1.341536728134   -0.906281811405    1.306859795799
 C    1.700536728134   -2.014281811405    0.328859795799
 H    1.828536728134    0.027718188595    1.023859795799
 H    0.268536728134   -0.762281811405    1.304859795799
 H    1.661536728134   -1.185281811405    2.310859795799
 H    1.162536728134   -2.916281811405    0.621859795799
 H    2.778786728134   -2.224501811405    0.385369795799
 H    1.385196728134   -1.757841811405   -0.693300204201
 C   -0.786463271866    1.487718188595   -0.615140204201
 C   -2.255463271866    1.433718188595   -1.021140204201
 H   -0.360463271866    0.487718188595   -0.641140204201
 H   -0.237463271866    2.121718188595   -1.313140204201
 H   -0.665463271866    1.913718188595    0.379859795799
 H   -2.682463271866    2.429718188595   -0.913140204201
 H   -2.808513271866    0.727558188595   -0.384380204201
 H   -2.332513271866    1.127648188595   -2.074890204201
