22
1 1 
 C   -0.414677645636    0.060175725025   -3.359768902808
 C    0.871322354364   -0.276824274975   -2.662768902808
 O    0.972322354364   -0.198824274975   -1.439768902808
 N    1.876322354364   -0.645824274975   -3.437768902808
 H   -1.245677645636   -0.319824274975   -2.767768902808
 H   -0.440677645636   -0.422824274975   -4.337768902808
 H    2.761322354364   -0.860824274975   -3.003768902808
 H    1.755322354364   -0.722824274975   -4.434768902808
 H   -0.521260645636    1.149365725025   -3.470731902808
 C   -0.723677645636    1.930175725025    3.186231097192
 C   -0.668677645636   -0.203824274975    1.939231097192
 N   -0.792677645636   -0.791824274975    0.770231097192
 N   -0.880677645636    1.103175725025    1.991231097192
 N   -0.318677645636   -0.906824274975    3.012231097192
 H   -0.728677645636   -0.250824274975   -0.075768902808
 H   -0.737677645636   -1.795824274975    0.699231097192
 H   -1.147677645636    1.562175725025    1.134231097192
 H   -0.214677645636   -0.440824274975    3.898231097192
 H   -0.153677645636   -1.897824274975    2.939231097192
 H    0.329322354364    1.931175725025    3.477231097192
 H   -1.310677645636    1.524175725025    4.014231097192
 H   -1.027677645636    2.971429725025    3.003541097192
