24
0 1 
 C   -2.368817922438    0.312216617836    0.303373744933
 C   -1.625817922438   -0.625783382164   -0.597626255067
 C   -1.000817922438   -1.798783382164   -0.324626255067
 C   -0.830817922438   -1.415783382164   -2.485626255067
 N   -1.512817922438   -0.404783382164   -1.957626255067
 N   -0.509817922438   -2.268783382164   -1.520626255067
 H   -1.941817922438    1.305216617836    0.162373744933
 H   -2.217817922438    0.022216617836    1.343373744933
 H   -0.895817922438   -2.251783382164    0.650373744933
 H   -0.592817922438   -1.539783382164   -3.536626255067
 H   -0.048817922438   -3.166783382164   -1.681626255067
 H   -3.443687922438    0.347496617836    0.072272844933
 C    1.282182077562    1.703216617836    0.207373744933
 C    1.819182077562    0.711216617836   -0.826626255067
 C    2.310182077562    1.270216617836    2.781373744933
 S    0.825182077562    0.962216617836    1.788373744933
 H    2.021182077562    2.484216617836    0.376373744933
 H    0.395182077562    2.174216617836   -0.214626255067
 H    2.095182077562    1.260216617836   -1.726626255067
 H    1.008182077562    0.048216617836   -1.097626255067
 H    2.532182077562    2.338216617836    2.790373744933
 H    2.134182077562    0.935216617836    3.803373744933
 H    3.156182077562    0.720216617836    2.378373744933
 H    2.661842077562    0.081566617836   -0.504963255067
