14
1 1 
 C   -0.531177093138    2.041042316891   -0.892736899623
 N   -1.249177093138    0.743042316891   -0.753736899623
 H   -1.877177093138    0.733042316891    0.044263100377
 H   -1.799177093138    0.531042316891   -1.581736899623
 H   -0.599177093138   -0.034957683109   -0.635736899623
 H   -1.243177093138    2.865042316891   -1.006736899623
 H    0.091822906862    2.020042316891   -1.795736899623
 H    0.116722906862    2.234182316891   -0.025026899623
 C    1.155822906862   -1.230957683109    1.496263100377
 O    0.681822906862   -1.410957683109    0.172263100377
 H    0.592822906862   -2.362957683109   -0.002736899623
 H    0.484822906862   -1.743957683109    2.187263100377
 H    1.160822906862   -0.175957683109    1.758263100377
 H    2.169622906862   -1.642227683109    1.610583100377
