33
0 1 
 C    1.342162230611    2.998963590699    0.401278089598
 C    2.426162230611    0.746963590699    0.734278089598
 C    2.393162230611    1.971963590699    0.063278089598
 C    3.392162230611   -0.201036409301    0.403278089598
 C    4.346162230611    0.075963590699   -0.582721910402
 C    3.329162230611    2.223963590699   -0.954721910402
 C    4.316162230611    1.293963590699   -1.262721910402
 H    1.707162230611    0.524963590699    1.497278089598
 H    3.403162230611   -1.154036409301    0.915278089598
 H    1.788162230611    3.992963590699    0.413278089598
 H    0.987162230611    2.793963590699    1.411278089598
 H    5.101162230611   -0.660036409301   -0.828721910402
 H    3.308162230611    3.167963590699   -1.482721910402
 H    5.053162230611    1.510963590699   -2.024721910402
 H    0.490982230611    2.983866590699   -0.295331910402
 C   -1.027837769389   -0.858036409301    1.362278089598
 C   -1.501837769389   -0.477036409301    2.763278089598
 C   -2.141837769389   -1.105036409301    0.366278089598
 C   -2.621837769389   -0.066036409301   -0.440721910402
 C   -2.682837769389   -2.389036409301    0.214278089598
 C   -3.635837769389   -0.279036409301   -1.362721910402
 C   -3.678837769389   -2.628036409301   -0.720721910402
 C   -4.158837769389   -1.565036409301   -1.533721910402
 H   -0.393837769389   -0.063036409301    0.970278089598
 H   -0.419837769389   -1.761036409301    1.432278089598
 H   -2.180837769389   -1.252036409301    3.111278089598
 H   -2.208837769389    0.924963590699   -0.338721910402
 H   -2.311837769389   -3.200036409301    0.816278089598
 H   -3.989837769389    0.532963590699   -1.948721910402
 H   -4.039837769389   -3.634036409301   -0.871721910402
 H   -4.802837769389   -1.732036409301   -2.372721910402
 H   -2.031367769389    0.487110890699    2.758758089598
 H   -0.596357769389   -0.408780409301    3.384118089598
