16
0 1 
 C    0.852202195430    0.480959419852   -2.029661953104
 C    1.112202195430   -1.019040580148   -1.975661953104
 H    1.540202195430    0.949959419852   -2.735661953104
 H   -0.174797804570    0.661959419852   -2.354661953104
 H    0.981202195430    0.936959419852   -1.047661953104
 H    0.423202195430   -1.462040580148   -1.258661953104
 H    2.142217195430   -1.250239580148   -1.666442953104
 H    0.911568195430   -1.447317580148   -2.968800953104
 C   -0.640797804570    0.516959419852    1.365338046896
 C   -1.314797804570    0.016959419852    2.640338046896
 H   -0.957797804570   -0.081040580148    0.510338046896
 H   -0.903797804570    1.555959419852    1.188338046896
 H    0.443202195430    0.474959419852    1.465338046896
 H   -2.392797804570    0.054959419852    2.483338046896
 H   -1.024159804570   -1.015626580148    2.883848046896
 H   -1.093127804570    0.671068419852    3.496498046896
