23
0 1 
 C   -2.242161189928    1.931353950893   -1.142091465004
 C   -1.744161189928    3.220353950893   -1.763091465004
 H   -3.071161189928    1.502353950893   -1.674091465004
 H   -1.437161189928    1.203353950893   -1.193091465004
 H   -2.507161189928    2.098353950893   -0.099091465004
 H   -0.798161189928    3.476353950893   -1.283091465004
 H   -2.450341189928    4.040364950893   -1.565882465004
 H   -1.583781189928    3.107574950893   -2.845477465004
 C   -1.383161189928   -2.216646049107    0.509908534996
 C   -0.191161189928   -0.012646049107    0.785908534996
 C   -0.123161189928   -1.382646049107    0.521908534996
 C    0.949838810072    0.787353950893    0.728908534996
 C    1.112838810072   -1.950646049107    0.211908534996
 C    2.181838810072    0.217353950893    0.412908534996
 C    2.260838810072   -1.155646049107    0.155908534996
 H   -1.141161189928    0.437353950893    1.037908534996
 H    0.867838810072    1.851353950893    0.896908534996
 H   -1.277161189928   -3.005646049107   -0.235091465004
 H   -2.208161189928   -1.578646049107    0.187908534996
 H    1.182838810072   -3.007646049107    0.000908534996
 H    3.069838810072    0.834353950893    0.361908534996
 H    3.215838810072   -1.591646049107   -0.090091465004
 H   -1.644151189928   -2.678405049107    1.473579034996
