20
0 1 
 C    2.415110320365   -1.289907263216    1.739633044359
 C    2.224110320365   -2.681907263216    1.139633044359
 H    3.438110320365   -0.960907263216    1.557633044359
 H    1.745110320365   -0.582907263216    1.262633044359
 H    2.251110320365   -1.301907263216    2.815633044359
 H    2.911110320365   -3.370907263216    1.628633044359
 H    1.195710320365   -3.048423263216    1.274022144359
 H    2.483580320365   -2.668213263216    0.070761044359
 C   -2.245889679635   -0.880907263216   -1.095366955641
 C   -0.578889679635    0.319092736784    0.469633044359
 C   -1.263889679635    0.170092736784   -0.693366955641
 C   -0.140889679635    2.050092736784   -0.802366955641
 N    0.129110320365    1.494092736784    0.372633044359
 N   -0.984889679635    1.271092736784   -1.468366955641
 H   -0.607889679635   -0.363907263216    1.307633044359
 H    0.761110320365    1.890092736784    1.059633044359
 H   -1.861889679635   -1.847907263216   -0.776366955641
 H   -2.325889679635   -0.888907263216   -2.180366955641
 H    0.266110320365    2.989092736784   -1.157366955641
 H   -3.243559679635   -0.719877263216   -0.660943955641
