20
0 1 
 C   -2.385736770039    1.237836819079   -0.746379502140
 C   -1.899736770039    1.295836819079    0.689620497860
 O   -0.985736770039    0.510836819079    1.031620497860
 O   -2.423736770039    2.118836819079    1.473620497860
 H   -1.794736770039    0.494836819079   -1.284379502140
 H   -2.216736770039    2.194836819079   -1.235379502140
 H   -3.450826770039    0.971563819079   -0.814749502140
 C    0.400263229961   -2.087163180921   -1.739379502140
 C    1.804263229961   -0.771163180921   -0.172379502140
 N    0.620263229961   -1.184163180921   -0.601379502140
 N    2.913263229961   -1.180163180921   -0.759379502140
 N    1.874263229961    0.077836819079    0.832620497860
 H   -0.185736770039   -0.797163180921   -0.113379502140
 H    2.869263229961   -1.861163180921   -1.499379502140
 H    3.811263229961   -0.880163180921   -0.415379502140
 H    0.986263229961    0.384836819079    1.230620497860
 H    2.755263229961    0.368836819079    1.220620497860
 H   -0.591736770039   -2.535163180921   -1.639379502140
 H    1.129263229961   -2.901163180921   -1.739379502140
 H    0.439033229961   -1.540053180921   -2.692879502140
