22
-1 1 
 C   -1.510459745239    0.849271326263   -1.982771733355
 C   -1.950459745239    2.323271326263   -2.105771733355
 C   -0.140459745239    0.595271326263   -2.631771733355
 O    0.876540254761    1.130271326263   -2.132771733355
 O   -0.091459745239   -0.105728673737   -3.670771733355
 H   -1.451459745239    0.626271326263   -0.919771733355
 H   -2.258459745239    0.197271326263   -2.437771733355
 H   -1.166459745239    2.957271326263   -1.688771733355
 H   -2.887339745239    2.441311326263   -1.541561733355
 H   -2.024819745239    2.677031326263   -3.144671733355
 C    1.096540254761   -1.866728673737    4.126228266645
 C    0.208540254761    0.399271326263    1.401228266645
 C    0.673540254761   -1.217728673737    2.828228266645
 C    0.336540254761   -1.783728673737    1.634228266645
 N    0.583540254761    0.151271326263    2.650228266645
 N    0.053540254761   -0.760728673737    0.766228266645
 H    0.070540254761    1.409271326263    1.032228266645
 H   -0.223459745239   -0.875728673737   -0.196771733355
 H    0.276540254761   -2.813728673737    1.336228266645
 H    2.040540254761   -1.404728673737    4.417228266645
 H    1.262540254761   -2.918728673737    3.912228266645
 H    0.365000254761   -1.739848673737    4.937868266645
