26
0 1 
 C   -2.417025668471   -0.800745303092   -1.717096546882
 C    0.930974331529   -1.316745303092   -0.060096546882
 C    0.548974331529   -1.469745303092    1.247903453118
 C   -0.036025668471   -1.094745303092   -1.005096546882
 C   -1.381025668471   -1.030745303092   -0.664096546882
 C   -0.792025668471   -1.436745303092    1.596903453118
 C   -1.759025668471   -1.202745303092    0.649903453118
 H    1.975974331529   -1.367745303092   -0.339096546882
 H    1.296974331529   -1.647745303092    2.008903453118
 H    0.260974331529   -0.980745303092   -2.037096546882
 H   -1.077025668471   -1.586745303092    2.628903453118
 H   -3.259025668471   -1.446745303092   -1.521096546882
 H   -2.002025668471   -1.102745303092   -2.681096546882
 H   -2.802025668471   -1.172745303092    0.933903453118
 H   -2.744565668471    0.247232096908   -1.783896546882
 C    2.048974331529    2.242254696908    0.005903453118
 C    1.106974331529    2.408254696908   -1.173096546882
 C    1.462974331529    2.781254696908    1.313903453118
 H    2.245974331529    1.177254696908    0.133903453118
 H    3.000974331529    2.736254696908   -0.201096546882
 H    0.149974331529    1.951254696908   -0.913096546882
 H    1.452974331529    3.872254696908    1.285903453118
 H    0.431974331529    2.437254696908    1.400903453118
 H    1.511484331529    1.914103696908   -2.068744546882
 H    0.970204331529    3.478495696908   -1.387289546882
 H    1.995594331529    2.450788696908    2.217846453118
