16
0 1 
 C    1.526621074421    1.654719577233    0.229692006444
 C    1.804621074421    1.693719577233   -1.266307993556
 H    2.364621074421    1.207719577233    0.761692006444
 H    1.390621074421    2.663719577233    0.603692006444
 H    0.622621074421    1.078719577233    0.414692006444
 H    2.736621074421    2.234719577233   -1.426307993556
 H    1.919397074421    0.670059577233   -1.652242993556
 H    0.996748074421    2.221972577233   -1.793839993556
 C   -1.167378925579   -1.096280422767    0.496692006444
 C   -2.161378925579   -2.258280422767    0.539692006444
 H   -0.941378925579   -0.821280422767   -0.529307993556
 H   -1.602378925579   -0.228280422767    0.990692006444
 H   -0.247378925579   -1.371280422767    1.013692006444
 H   -3.012378925579   -1.990280422767   -0.085307993556
 H   -1.700633925579   -3.178330422767    0.150826006444
 H   -2.556059925579   -2.414568422767    1.554483006444
