26
0 1 
 C    0.981307989049   -1.606189132834   -2.851922538860
 C    0.214307989049   -1.649189132834   -4.172922538860
 C    2.328307989049   -2.338189132834   -2.852922538860
 H    1.159307989049   -0.560189132834   -2.611922538860
 H    0.349307989049   -2.029189132834   -2.070922538860
 H    0.006307989049   -2.696189132834   -4.389922538860
 H    2.911307989049   -2.074189132834   -3.733922538860
 H    0.855337989049   -1.230869132834   -4.962922538860
 H   -0.775712010951   -1.195369132834   -4.018272538860
 H    2.918717989049   -2.032129132834   -1.976712538860
 H    2.161637989049   -3.425489132834   -2.852202538860
 C   -1.210692010951    2.890810867166    2.835077461140
 C   -0.092692010951   -0.624189132834    0.619077461140
 C    0.052307989049    0.639810867166    0.042077461140
 C   -0.588692010951   -0.740189132834    1.919077461140
 C   -0.298692010951    1.780810867166    0.768077461140
 C   -0.933692010951    0.403810867166    2.639077461140
 C   -0.795692010951    1.667810867166    2.069077461140
 H    0.176307989049   -1.513189132834    0.070077461140
 H    0.429307989049    0.745810867166   -0.963922538860
 H   -0.725692010951   -1.716189132834    2.362077461140
 H   -0.186692010951    2.753810867166    0.312077461140
 H   -1.306692010951    0.299810867166    3.646077461140
 H   -0.480692010951    3.679810867166    2.642077461140
 H   -1.183692010951    2.670810867166    3.902077461140
 H   -2.213372010951    3.261240867166    2.575417461140
