19
0 1 
 C   -0.989857118168   -0.736886930084   -0.497314772281
 C   -2.184857118168    0.024113069916    0.075685227719
 C   -1.340857118168   -2.083886930084   -1.131314772281
 H   -0.481857118168   -0.115886930084   -1.238314772281
 H   -0.297857118168   -0.911886930084    0.325685227719
 H   -2.727857118168   -0.652886930084    0.741685227719
 H   -2.083857118168   -2.596886930084   -0.520314772281
 H   -1.781857118168   -1.901886930084   -2.112314772281
 H   -2.869633118168    0.355213069916   -0.718955772281
 H   -1.835107118168    0.873207069916    0.681252227719
 H   -0.455617118168   -2.725811310084   -1.250825772281
 C    2.318142881832    0.643113069916    0.582685227719
 C    2.132142881832    2.108113069916    0.930685227719
 H    3.335142881832    0.473113069916    0.225685227719
 H    2.142142881832    0.031113069916    1.467685227719
 H    1.621142881832    0.353113069916   -0.199314772281
 H    1.147142881832    2.214113069916    1.379685227719
 H    2.182442881832    2.722445069916    0.019605227719
 H    2.882972881832    2.423911069916    1.669956227719
