19
0 1 
 C   -0.225169251187   -1.891694065307   -0.980931901108
 C   -0.057169251187   -2.560694065307   -2.339931901108
 H   -1.109169251187   -1.254694065307   -0.995931901108
 H   -0.342169251187   -2.654694065307   -0.211931901108
 H    0.653830748813   -1.290694065307   -0.755931901108
 H    0.828830748813   -3.195694065307   -2.316931901108
 H    0.065940748813   -1.808394065307   -3.132991901108
 H   -0.942856251187   -3.177594065307   -2.551961901108
 C   -0.250169251187    1.565305934693    0.699068098892
 C    1.138830748813    2.223305934693    0.715068098892
 C   -0.623169251187    0.768305934693    1.963068098892
 H   -0.978169251187    2.361305934693    0.550068098892
 H   -0.269169251187    0.895305934693   -0.160931901108
 H    1.211830748813    2.866305934693    1.598068098892
 H   -0.104169251187   -0.189694065307    1.942068098892
 H   -0.310169251187    1.333305934693    2.841068098892
 H    1.291307748813    2.831705934693   -0.188581901108
 H    1.913340748813    1.442305934693    0.702078098892
 H   -1.708624251187    0.596605934693    2.011008098892
