23
0 1 
 C    2.557023785245   -0.693034486101    0.414479322908
 C    3.926023785245   -1.244034486101    0.002479322908
 H    2.664023785245    0.120965513899    1.131479322908
 H    2.048023785245   -0.305034486101   -0.467520677092
 H    1.948023785245   -1.487034486101    0.848479322908
 H    4.541023785245   -0.422034486101   -0.367520677092
 H    3.760023785245   -1.931034486101   -0.827520677092
 H    4.459583785245   -1.764024486101    0.811751322908
 C   -0.484976214755    1.477965513899   -2.130520677092
 C   -0.689976214755    1.398965513899    0.372479322908
 C   -0.845976214755    0.768965513899   -0.862520677092
 C   -1.009976214755    0.726965513899    1.556479322908
 C   -1.487976214755   -0.571034486101    1.498479322908
 C   -1.320976214755   -0.537034486101   -0.907520677092
 C   -1.641976214755   -1.196034486101    0.267479322908
 H   -0.323976214755    2.413965513899    0.417479322908
 H   -0.894976214755    1.214965513899    2.510479322908
 H   -0.166976214755    0.733965513899   -2.860520677092
 H    0.384023785245    2.102965513899   -1.938520677092
 H   -1.752976214755   -1.090034486101    2.407479322908
 H   -1.447976214755   -1.039034486101   -1.855520677092
 H   -2.030976214755   -2.204034486101    0.232479322908
 H   -1.294496214755    2.087432513899   -2.558581677092
