23
0 1 
 C   -1.412731227818   -2.865819621210   -1.216029868998
 C   -0.704731227818   -3.220819621210   -2.531029868998
 H   -1.747731227818   -1.830819621210   -1.222029868998
 H   -2.282731227818   -3.511819621210   -1.093029868998
 H   -0.732731227818   -3.024819621210   -0.379029868998
 H   -1.388731227818   -3.048819621210   -3.363029868998
 H   -0.487731227818   -4.287819621210   -2.497029868998
 H    0.223995772182   -2.654417621210   -2.694289868998
 C   -1.214731227818    2.847180378790    0.896970131002
 C    0.457268772182   -0.540819621210    1.233970131002
 C    1.530268772182   -0.395819621210    0.392970131002
 C   -0.456731227818    0.502180378790    1.392970131002
 C   -0.261731227818    1.696180378790    0.726970131002
 C    1.733268772182    0.782180378790   -0.280029868998
 C    0.833268772182    1.833180378790   -0.109029868998
 H    0.309268772182   -1.472819621210    1.762970131002
 H    2.232268772182   -1.201819621210    0.253970131002
 H   -1.306731227818    0.387180378790    2.048970131002
 H    2.579268772182    0.883180378790   -0.943029868998
 H   -2.228731227818    2.464180378790    0.895970131002
 H   -1.121731227818    3.488180378790    0.018970131002
 H    1.001268772182    2.764180378790   -0.633029868998
 H   -1.043344227818    3.454180378790    1.798180131002
