18
0 1 
 C    1.994480881796   -0.043746327782    0.427565949280
 C    3.371480881796    0.313253672218    0.993565949280
 O    1.362480881796   -1.196746327782    1.012565949280
 H    1.330480881796    0.813253672218    0.456565949280
 H    2.126480881796   -0.240746327782   -0.637434050720
 H    4.123480881796   -0.083746327782    0.312565949280
 H    1.526480881796   -1.940746327782    0.395565949280
 H    3.507200881796   -0.096186327782    2.005466049280
 H    3.459030881796    1.409403672218    0.965348249280
 C   -2.283519118204   -0.872746327782    0.117565949280
 C   -1.698519118204    0.349253672218   -0.603434050720
 O   -1.127519118204    1.254253672218    0.007565949280
 N   -1.807519118204    0.352253672218   -1.928434050720
 H   -1.956519118204   -1.739746327782   -0.454434050720
 H   -3.374519118204   -0.840746327782    0.073565949280
 H   -1.467519118204    1.171253672218   -2.413434050720
 H   -2.440519118204   -0.277746327782   -2.390434050720
 H   -1.926929118204   -0.957106327782    1.154736949280
