34
0 1 
 C   -3.033055657964   -2.006121100413    0.808354308080
 C   -0.871055657964   -2.200121100413   -0.520645691920
 C   -1.517055657964   -2.104121100413    0.726354308080
 C    0.516944342036   -2.235121100413   -0.610645691920
 C    1.279944342036   -2.191121100413    0.556354308080
 C   -0.743055657964   -2.010121100413    1.890354308080
 C    0.653944342036   -2.090121100413    1.806354308080
 O    2.645944342036   -2.219121100413    0.438354308080
 H   -1.465055657964   -2.241121100413   -1.425645691920
 H    0.998944342036   -2.314121100413   -1.575645691920
 H   -3.379055657964   -2.544121100413    1.692354308080
 H   -3.455055657964   -2.505121100413   -0.064645691920
 H   -1.221055657964   -1.909121100413    2.855354308080
 H    2.928944342036   -2.299121100413   -0.479645691920
 H    1.256944342036   -2.039121100413    2.702354308080
 H   -3.402275657964   -0.970601100413    0.845494308080
 C    0.921944342036    1.120878899587   -0.162645691920
 C    1.498944342036    1.360878899587    1.176354308080
 C    0.561944342036    3.442878899587    0.425354308080
 C   -0.908055657964    1.373878899587   -2.414645691920
 C   -0.588055657964    2.570878899587   -1.532645691920
 O   -1.146055657964    3.658878899587   -1.693645691920
 N    0.342944342036    2.405878899587   -0.577645691920
 H    1.712944342036    0.813878899587   -0.846645691920
 H    0.152944342036    0.354878899587   -0.084645691920
 H    2.511944342036    0.959878899587    1.234354308080
 H    0.877944342036    0.850878899587    1.914354308080
 H   -0.386055657964    3.709878899587    0.889354308080
 H   -1.072055657964    0.507878899587   -1.775645691920
 H    1.491434342036    2.438468899587    1.397124308080
 H    1.224314342036    2.980578899587    1.172044308080
 H    1.061634342036    4.340588899587    0.032384308080
 H   -1.813045657964    1.576578899587   -3.006165691920
 H   -0.081095657964    1.157448899587   -3.106955691920
