19
1 1 
 C   -1.453241008722    1.542168966782    0.949657600471
 C   -1.954241008722    2.970168966782    1.152657600471
 H   -0.570241008722    1.351168966782    1.561657600471
 H   -2.238241008722    0.834168966782    1.220657600471
 H   -1.204241008722    1.375168966782   -0.099342399529
 H   -2.692241008722    3.163168966782    0.371657600471
 H   -1.141911008722    3.704828966782    1.050759600471
 H   -2.462251008722    3.093448966782    2.120502900471
 C    0.563758991278   -1.270831033218   -0.516342399529
 C    1.491758991278   -0.457831033218   -1.431342399529
 N    1.235758991278   -2.531831033218   -0.157342399529
 H    0.315758991278   -0.684831033218    0.375657600471
 H   -0.365241008722   -1.483831033218   -1.056342399529
 H    0.904758991278    0.350168966782   -1.872342399529
 H    1.858758991278   -1.087831033218   -2.245342399529
 H    2.088758991278   -2.381831033218    0.366657600471
 H    0.631758991278   -3.109831033218    0.416657600471
 H    1.464758991278   -3.077831033218   -0.979342399529
 H    2.337348991278   -0.012741033218   -0.886483399529
