24
0 1 
 C    2.203384877784    1.077827357506    1.584074006735
 C    2.156384877784    1.790827357506    2.940074006735
 H    2.387384877784    0.010827357506    1.718074006735
 H    1.271384877784    1.196827357506    1.041074006735
 H    2.976384877784    1.501827357506    0.944074006735
 H    2.084384877784    2.862827357506    2.765074006735
 H    3.070884877784    1.580717357506    3.514134006735
 H    1.268684877784    1.454707357506    3.495964006735
 C    1.529384877784   -0.764172642494   -2.607925993265
 C   -0.166615122216    0.663827357506   -1.428925993265
 C    0.431384877784   -0.589172642494   -1.590925993265
 C   -1.180615122216    0.856827357506   -0.492925993265
 C   -0.007615122216   -1.656172642494   -0.796925993265
 C   -1.605615122216   -0.211172642494    0.294074006735
 C   -1.022615122216   -1.472172642494    0.143074006735
 O   -2.588615122216   -0.014172642494    1.216074006735
 H    0.156384877784    1.489827357506   -2.047925993265
 H   -1.633615122216    1.826827357506   -0.374925993265
 H    2.245384877784    0.049827357506   -2.486925993265
 H    1.078384877784   -0.658172642494   -3.595925993265
 H    0.406384877784   -2.647172642494   -0.890925993265
 H   -1.360615122216   -2.302172642494    0.747074006735
 H   -2.768615122216   -0.805172642494    1.736074006735
 H    2.068614877784   -1.722232642494   -2.571155993265
