22
0 1 
 C    1.534754137066   -0.760083808387   -1.377775934718
 C    1.153754137066    0.591916191613   -2.047775934718
 C    0.436754137066   -1.855083808387   -1.383775934718
 H    2.424754137066   -1.163083808387   -1.861775934718
 H    1.773754137066   -0.592083808387   -0.331775934718
 H    0.213754137066    0.948916191613   -1.626775934718
 H    0.197754137066   -2.142083808387   -2.408775934718
 H    0.803754137066   -2.731083808387   -0.853775934718
 H   -0.463245862934   -1.485083808387   -0.892775934718
 H    1.897494137066    1.395586191613   -1.943074934718
 H    1.006224137066    0.419456191613   -3.124108934718
 C   -0.465245862934    0.838916191613    1.512224065282
 C   -1.684245862934    1.703916191613    1.142224065282
 C   -0.904245862934   -0.510083808387    2.153224065282
 H    0.114754137066    0.635916191613    0.619224065282
 H    0.171754137066    1.380916191613    2.215224065282
 H   -2.344245862934    1.162916191613    0.455224065282
 H   -1.542245862934   -0.332083808387    3.013224065282
 H   -1.461245862934   -1.095083808387    1.419224065282
 H   -1.367715862934    2.670376191613    0.722994065282
 H   -2.213005862934    1.921596191613    2.081924065282
 H   -0.063925862934   -1.108173808387    2.535514065282
