21
1 1 
 C   -0.335654779222    1.520101950824   -1.850697630080
 C    0.909345220778    0.883101950824    0.186302369920
 N    0.441345220778    0.580101950824   -1.032697630080
 N    0.661345220778    2.106101950824    0.697302369920
 N    1.622345220778   -0.001898049176    0.904302369920
 H    0.614345220778   -0.342898049176   -1.414697630080
 H    0.136345220778    2.782101950824    0.145302369920
 H    1.000345220778    2.378101950824    1.597302369920
 H    1.823345220778   -0.926898049176    0.529302369920
 H    1.972345220778    0.236101950824    1.818302369920
 H    0.161345220778    2.490101950824   -1.817697630080
 H   -1.331654779222    1.606101950824   -1.417697630080
 H   -0.456914779222    1.243101950824   -2.908327630080
 C   -1.380654779222   -1.836898049176    0.255302369920
 C   -1.876654779222   -3.211898049176    0.779302369920
 H   -0.317654779222   -1.731898049176    0.451302369920
 H   -1.553654779222   -1.763898049176   -0.820697630080
 H   -1.918654779222   -1.032898049176    0.756302369920
 H   -1.344654779222   -4.006898049176    0.256302369920
 H   -2.943654779222   -3.310898049176    0.566302369920
 H   -1.750434779222   -3.415398049176    1.852912369920
