19
0 1 
 C    1.154248290765   -1.331504968017   -0.073394712650
 C    1.150248290765   -1.346504968017   -1.610394712650
 C    2.328248290765   -0.592504968017    0.538605287350
 H    0.233248290765   -0.877504968017    0.284605287350
 H    1.193248290765   -2.358504968017    0.292605287350
 H    2.001248290765   -1.938504968017   -1.946394712650
 H    2.223248290765    0.482495031983    0.395605287350
 H    2.360248290765   -0.792504968017    1.610605287350
 H    3.254248290765   -0.941504968017    0.084605287350
 H    0.226058290765   -1.815388968017   -1.979214712650
 H    1.260808290765   -0.337074968017   -2.033264712650
 C   -1.574751709235    1.299495031983    0.548605287350
 C   -2.981751709235    1.884495031983    0.589605287350
 H   -1.428751709235    0.743495031983   -0.374394712650
 H   -0.840751709235    2.103495031983    0.587605287350
 H   -1.421751709235    0.636495031983    1.399605287350
 H   -3.108751709235    2.530495031983   -0.279394712650
 H   -3.738811709235    1.087205031983    0.555128287350
 H   -3.121331709235    2.507545031983    1.485331287350
