16
0 1 
 C   -0.630946235101    1.590153903102    0.403870272294
 C   -0.073946235101    2.734153903102   -0.454129727706
 H   -0.889946235101    1.956153903102    1.397870272294
 H   -1.526946235101    1.184153903102   -0.067129727706
 H    0.096053764899    0.786153903102    0.496870272294
 H    0.250053764899    2.316153903102   -1.409129727706
 H    0.785653764899    3.209003903102    0.041461272294
 H   -0.848506235101    3.489243903102   -0.653898727706
 C   -0.337946235101   -2.245846096898    0.337870272294
 C    1.048053764899   -2.078846096898   -0.284129727706
 H   -0.273946235101   -2.480846096898    1.396870272294
 H   -0.898946235101   -1.316846096898    0.241870272294
 H   -0.896946235101   -3.026846096898   -0.180129727706
 H    1.636053764899   -1.400846096898    0.332870272294
 H    1.533143764899   -3.064161096898   -0.346117727706
 H    0.972183764899   -1.646741096898   -1.292855727706
