25
1 1 
 C   -2.545207825729   -1.969650333808   -1.360956300416
 C   -1.115207825729    1.132349666192   -0.137956300416
 C   -1.861207825729   -0.648650333808   -1.192956300416
 C   -1.195207825729    0.119349666192   -2.092956300416
 N   -1.809207825729    0.009349666192    0.021043699584
 N   -0.760207825729    1.238349666192   -1.415956300416
 H   -0.914207825729    1.867349666192    0.634043699584
 H   -0.249207825729    2.019349666192   -1.814956300416
 H   -1.048207825729   -0.109650333808   -3.141956300416
 H   -2.748207825729   -2.145650333808   -2.417956300416
 H   -3.508207825729   -1.898650333808   -0.851956300416
 H   -1.975052825729   -2.811610333808   -0.941408300416
 C    0.913792174271   -1.224650333808    2.483043699584
 C    1.905792174271    0.329349666192    0.820043699584
 N    1.444792174271   -0.863650333808    1.162043699584
 N    2.378792174271    0.534349666192   -0.393956300416
 N    1.917792174271    1.311349666192    1.699043699584
 H    1.420792174271   -1.584650333808    0.449043699584
 H    2.378792174271   -0.211650333808   -1.069956300416
 H    2.784792174271    1.423349666192   -0.639956300416
 H    1.593792174271    1.142349666192    2.636043699584
 H    2.289792174271    2.215349666192    1.453043699584
 H   -0.168207825729   -1.076650333808    2.477043699584
 H    1.343792174271   -0.599650333808    3.262043699584
 H    1.131063174271   -2.278410333808    2.711902699584
