24
0 1 
 C    1.349161451876    1.836701933967    2.678918053024
 C    1.692161451876    2.029701933967    4.163918053024
 H    0.612161451876    1.041701933967    2.560918053024
 H    0.932161451876    2.759701933967    2.278918053024
 H    2.238161451876    1.593701933967    2.097918053024
 H    2.473161451876    2.773701933967    4.200918053024
 H    2.025381451876    1.072151933967    4.590608053024
 H    0.804691451876    2.401101933967    4.697268053024
 C   -2.383838548124   -2.462298066033    0.095918053024
 C    0.837161451876   -0.467298066033   -0.357081946976
 C    0.503161451876    0.363701933967   -1.425081946976
 C   -0.092838548124   -1.392298066033    0.117918053024
 C   -1.360838548124   -1.498298066033   -0.464081946976
 C   -0.754838548124    0.267701933967   -2.019081946976
 C   -1.681838548124   -0.658298066033   -1.535081946976
 O    1.391161451876    1.283701933967   -1.880081946976
 H    1.813161451876   -0.383298066033    0.096918053024
 H    0.169161451876   -2.008298066033    0.964918053024
 H   -1.014838548124    0.910701933967   -2.842081946976
 H    1.026161451876    1.803701933967   -2.600081946976
 H   -3.303838548124   -1.910298066033    0.264918053024
 H   -2.039838548124   -2.807298066033    1.071918053024
 H   -2.667838548124   -0.694298066033   -1.980081946976
 H   -2.612358548124   -3.342608066033   -0.522811946976
