26
-1 1 
 C    2.921151150592   -0.260575128877   -2.370008930811
 C    1.209151150592   -0.730575128877   -0.549008930811
 C   -0.179848849408    0.997424871123   -0.656008930811
 C    1.710151150592    0.044424871123   -1.528008930811
 C    0.841151150592    1.171424871123   -1.626008930811
 C   -1.180848849408    1.929424871123   -0.457008930811
 C   -1.167848849408    3.059424871123   -1.290008930811
 C    0.827151150592    2.302424871123   -2.441008930811
 C   -0.153848849408    3.251424871123   -2.229008930811
 N    0.092151150592   -0.175575128877   -0.024008930811
 H   -0.387848849408   -0.573575128877    0.788991069189
 H    1.648151150592   -1.664575128877   -0.217008930811
 H   -1.945848849408    1.779424871123    0.290991069189
 H    2.687151150592    0.028424871123   -3.389008930811
 H    3.072151150592   -1.339575128877   -2.373008930811
 H   -1.943848849408    3.806424871123   -1.184008930811
 H    1.574151150592    2.442424871123   -3.208008930811
 H   -0.181848849408    4.124424871123   -2.854008930811
 H    3.867231150592    0.199173871123   -2.048184930811
 C   -0.870848849408   -3.125575128877    4.107991069189
 C   -1.144848849408   -2.459575128877    2.841991069189
 O   -0.325848849408   -1.635575128877    2.381991069189
 O   -2.237848849408   -2.771575128877    2.351991069189
 H    0.173151150592   -3.063575128877    4.338991069189
 H   -1.056848849408   -4.194575128877    3.961991069189
 H   -1.564458849408   -2.740562128877    4.870011069189
