28
0 1 
 C    1.168613827432   -4.431516958288   -2.276544651461
 C    0.310613827432   -2.259516958288   -1.163544651461
 C    0.145613827432   -3.389516958288   -1.904544651461
 C   -1.731386172568   -2.255516958288   -1.911544651461
 N   -0.876386172568   -1.574516958288   -1.165544651461
 N   -1.150386172568   -3.368516958288   -2.356544651461
 H    1.231613827432   -1.955516958288   -0.684544651461
 H   -1.055386172568   -0.692516958288   -0.722544651461
 H    2.125613827432   -4.074516958288   -1.895544651461
 H    1.239613827432   -4.477516958288   -3.363544651461
 H   -2.748386172568   -1.954516958288   -2.128544651461
 H    0.995384827432   -5.443577958288   -1.881924651461
 C    2.219613827432    3.763483041712    2.874455348539
 C    0.696613827432    1.193483041712    0.485455348539
 C   -0.657386172568    1.431483041712    0.660455348539
 C    1.646613827432    1.962483041712    1.185455348539
 C    1.238613827432    2.964483041712    2.064455348539
 C   -1.068386172568    2.413483041712    1.541455348539
 C   -0.126386172568    3.170483041712    2.220455348539
 O   -1.601386172568    0.710483041712   -0.012544651461
 H    1.020613827432    0.426483041712   -0.200544651461
 H    2.697613827432    1.762483041712    1.038455348539
 H   -2.121386172568    2.602483041712    1.694455348539
 H   -2.492386172568    1.001483041712    0.217455348539
 H    1.766613827432    4.716483041712    3.153455348539
 H    3.085613827432    3.981483041712    2.257455348539
 H   -0.469386172568    3.935483041712    2.905455348539
 H    2.545103827432    3.241553041712    3.786405348539
