28
0 1 
 C   -0.182644690353   -4.150505568372    0.751627479844
 C    1.279355309647   -0.670505568372    0.904627479844
 C    0.516355309647   -1.661505568372    0.235627479844
 C    0.501355309647   -2.829505568372    1.069627479844
 C    1.219355309647   -2.494505568372    2.202627479844
 C    0.931355309647    0.869494431628   -0.886372520156
 C    1.474355309647    0.595494431628    0.368627479844
 C    0.189355309647   -0.089505568372   -1.569372520156
 C   -0.015644690353   -1.357505568372   -1.034372520156
 N    1.684355309647   -1.202505568372    2.101627479844
 H    1.086355309647    1.843494431628   -1.334372520156
 H    2.059355309647    1.336494431628    0.891627479844
 H   -0.223644690353    0.149494431628   -2.541372520156
 H   -0.588644690353   -2.096505568372   -1.576372520156
 H    2.198355309647   -0.710505568372    2.828627479844
 H    1.385355309647   -3.136505568372    3.059627479844
 H   -0.518644690353   -4.095505568372   -0.283372520156
 H   -1.069644690353   -4.251505568372    1.376627479844
 H    0.472145309647   -5.028336568372    0.854897479844
 C   -1.804644690353    3.391494431628   -1.421372520156
 C   -3.287644690353    3.431494431628   -1.828372520156
 O   -1.497644690353    4.472494431628   -0.541372520156
 H   -1.574644690353    2.440494431628   -0.943372520156
 H   -1.187644690353    3.481494431628   -2.317372520156
 H   -3.439644690353    4.396494431628   -2.314372520156
 H   -0.543644690353    4.465494431628   -0.375372520156
 H   -3.966134690353    3.382014431628   -0.963962520156
 H   -3.498004690353    2.673777431628   -2.597532520156
