19
-1 1 
 C    1.199449985190    1.082861465671   -0.535300137074
 C    1.486449985190    2.395861465671   -1.261300137074
 C    1.073449985190    1.266861465671    0.945699862926
 O    1.722449985190    2.131861465671    1.533699862926
 N    0.214449985190    0.476861465671    1.566699862926
 H    0.305449985190    0.606861465671   -0.933300137074
 H    2.026449985190    0.386861465671   -0.678300137074
 H    2.334449985190    2.878861465671   -0.770300137074
 H    0.113449985190    0.564861465671    2.564699862926
 H   -0.346550014810   -0.203138534329    1.048699862926
 H    0.624942985190    3.074211465671   -1.173870137074
 H    1.827568985190    2.218101465671   -2.291850137074
 C   -2.183550014810   -1.895138534329   -1.794300137074
 C   -1.352550014810   -1.796138534329   -0.514300137074
 O   -1.815550014810   -1.208138534329    0.483699862926
 O   -0.246550014810   -2.365138534329   -0.477300137074
 H   -2.735550014810   -2.837138534329   -1.799300137074
 H   -1.495550014810   -1.921138534329   -2.641300137074
 H   -2.902011014810   -1.071168534329   -1.916320137074
