23
0 1 
 C   -0.596012060291   -3.652330084924    0.111251559822
 C    0.983987939709    0.353669915076    0.171251559822
 C    1.113987939709   -0.458330084924    1.281251559822
 C    0.361987939709   -0.135330084924   -0.948748440178
 C    0.615987939709   -1.759330084924    1.266251559822
 C   -0.155012060291   -1.421330084924   -0.957748440178
 C   -0.040012060291   -2.248330084924    0.143251559822
 H    1.401987939709    1.349669915076    0.176251559822
 H    1.663987939709   -0.110330084924    2.141251559822
 H    0.267987939709    0.486669915076   -1.828748440178
 H    0.769987939709   -2.391330084924    2.128251559822
 H   -0.630012060291   -1.786330084924   -1.854748440178
 H    0.195987939709   -4.350330084924    0.384251559822
 H   -0.898012060291   -3.881330084924   -0.910748440178
 H   -1.463992060291   -3.805376184924    0.769421559822
 C   -0.438012060291    3.788669915076   -0.828748440178
 C   -1.469012060291    4.632669915076   -0.087748440178
 H    0.252987939709    3.326669915076   -0.126748440178
 H   -0.949012060291    3.002669915076   -1.384748440178
 H    0.117987939709    4.412669915076   -1.527748440178
 H   -1.992012060291    3.997669915076    0.629251559822
 H   -2.195012060291    4.966669915076   -0.824748440178
 H   -1.042352060291    5.498134915076    0.440391559822
