16
0 1 
 C   -1.519494183393    0.037514087503    1.233330522069
 C   -1.156494183393   -1.431485912497    1.331330522069
 H   -2.490494183393    0.220514087503    1.697330522069
 H   -0.772494183393    0.657514087503    1.725330522069
 H   -1.557494183393    0.370514087503    0.196330522069
 H   -0.194494183393   -1.589485912497    0.842330522069
 H   -1.906404183393   -2.063435912497    0.833059522069
 H   -1.061524183393   -1.702015912497    2.393306522069
 C    1.700505816607    0.222514087503   -0.818669477931
 C    0.974505816607    1.171514087503   -1.749669477931
 H    2.749505816607    0.499514087503   -0.716669477931
 H    1.239505816607    0.249514087503    0.169330522069
 H    1.639505816607   -0.792485912497   -1.209669477931
 H   -0.059494183393    0.837514087503   -1.849669477931
 H    1.462545816607    1.135254087503   -2.734811477931
 H    0.962965816607    2.176414087503   -1.302406477931
