22
1 1 
 C   -0.246322666219   -0.634751989216   -1.357262751759
 C   -0.584322666219   -0.967751989216   -4.053262751759
 S    0.484677333781   -1.487751989216   -2.707262751759
 H   -1.334322666219   -0.721751989216   -1.381262751759
 H    0.124677333781   -1.103751989216   -0.452262751759
 H    0.079677333781    0.401248010784   -1.396262751759
 H   -1.474322666219   -1.578751989216   -3.900262751759
 H   -0.260322666219   -1.355751989216   -5.004262751759
 H   -0.985282666219    0.055729110784   -4.011808751759
 C   -1.117322666219    2.251248010784    3.344737248241
 C    0.244677333781    0.655248010784    2.008737248241
 N    0.125677333781    1.759248010784    2.733737248241
 N   -0.762322666219   -0.156751989216    1.781737248241
 N    1.404677333781    0.344248010784    1.471737248241
 H    0.961677333781    2.317248010784    2.868737248241
 H   -1.675322666219    0.057248010784    2.154737248241
 H   -0.622322666219   -1.066751989216    1.370737248241
 H    2.220677333781    0.916248010784    1.684737248241
 H    1.553677333781   -0.522751989216    0.978737248241
 H   -1.955322666219    2.094248010784    2.666737248241
 H   -1.038322666219    3.332248010784    3.480737248241
 H   -1.361182666219    1.797334110784    4.316587248241
