27
0 1 
 C    0.186641722721   -0.422189855236    3.068358322280
 C    0.341641722721    0.507810144764    0.624358322280
 C    0.902641722721   -0.082189855236    1.809358322280
 C    1.377641722721    0.535810144764   -0.351641677720
 C    2.200641722721   -0.360189855236    1.536358322280
 C   -0.933358277279    0.976810144764    0.262358322280
 C   -1.121358277279    1.521810144764   -1.025641677720
 C   -0.057358277279    1.530810144764   -1.953641677720
 C    1.199641722721    1.070810144764   -1.614641677720
 N    2.489641722721    0.021810144764    0.251358322280
 H   -1.750358277279    0.935810144764    0.938358322280
 H   -2.094358277279    1.890810144764   -1.315641677720
 H   -0.232358277279    1.912810144764   -2.949641677720
 H   -0.403358277279    0.425810144764    3.405358322280
 H    0.914641722721   -0.660189855236    3.845358322280
 H    2.893641722721   -0.841189855236    2.220358322280
 H    3.384641722721   -0.127189855236   -0.210641677720
 H    2.012641722721    1.082810144764   -2.325641677720
 H   -0.479508277279   -1.283889855236    2.914358322280
 C   -3.204358277279   -1.939189855236   -0.625641677720
 C   -2.673358277279   -2.521189855236   -1.931641677720
 H   -3.962358277279   -1.188189855236   -0.847641677720
 H   -3.641358277279   -2.730189855236   -0.015641677720
 H   -2.390358277279   -1.474189855236   -0.071641677720
 H   -1.964358277279   -3.310189855236   -1.691641677720
 H   -2.160438277279   -1.726019855236   -2.492551677720
 H   -3.513348277279   -2.960489855236   -2.489691677720
