23
0 1 
 C   -1.261086619613   -2.447279190274   -1.087510256106
 C    0.703913380387   -1.199279190274    0.051489743894
 C   -0.492086619613   -1.846279190274    0.051489743894
 C   -0.140086619613   -1.074279190274    2.081489743894
 N    0.899913380387   -0.723279190274    1.331489743894
 N   -0.998086619613   -1.759279190274    1.332489743894
 H    1.347913380387   -1.051279190274   -0.805510256106
 H    1.688913380387   -0.174279190274    1.655489743894
 H   -1.731086619613   -3.378279190274   -0.770510256106
 H   -0.556086619613   -2.669279190274   -1.867510256106
 H   -0.270086619613   -0.830279190274    3.129489743894
 H   -2.012986619613   -1.758161190274   -1.499538256106
 C    0.748913380387    2.303720809726   -0.919510256106
 C    1.148913380387    3.421720809726   -1.855510256106
 C   -0.695086619613    2.647720809726   -0.626510256106
 H    1.354913380387    2.299720809726   -0.013510256106
 H    0.809913380387    1.343720809726   -1.433510256106
 H    1.374913380387    4.331720809726   -1.296510256106
 H    2.008913380387    3.088720809726   -2.436510256106
 H   -0.737086619613    3.494720809726    0.060489743894
 H   -1.237086619613    1.793720809726   -0.216510256106
 H    0.243513380387    3.562630809726   -2.464108256106
 H   -1.079996619613    2.935860809726   -1.615863256106
