27
0 1 
 C   -0.611022097942   -2.652709330527    3.009796101979
 C   -0.216022097942   -3.106709330527    4.403796101979
 H    0.283977902058   -2.412709330527    2.435796101979
 H   -1.160022097942   -3.443709330527    2.504796101979
 H   -1.240022097942   -1.772709330527    3.094796101979
 H    0.430977902058   -3.981709330527    4.326796101979
 H    0.342587902058   -2.297789330527    4.897356101979
 H   -1.131782097942   -3.375839330527    4.950556101979
 C   -1.654022097942    0.302290669473    0.922796101979
 C   -1.935022097942    1.689290669473    1.545796101979
 C   -0.624022097942    0.363290669473   -0.205203898021
 C   -1.018022097942    0.702290669473   -1.503203898021
 C    0.749977902058    0.171290669473    0.050796101979
 C   -0.058022097942    0.869290669473   -2.529203898021
 C    1.714977902058    0.341290669473   -0.949203898021
 C    1.325977902058    0.710290669473   -2.243203898021
 O    2.317977902058    0.982290669473   -3.169203898021
 H   -1.315022097942   -0.400709330527    1.672796101979
 H   -2.612022097942   -0.038709330527    0.528796101979
 H   -2.376022097942    2.330290669473    0.776796101979
 H   -2.073022097942    0.833290669473   -1.711203898021
 H    1.059977902058   -0.111709330527    1.046796101979
 H   -0.378022097942    1.071290669473   -3.545203898021
 H    2.762977902058    0.193290669473   -0.730203898021
 H    1.972977902058    1.296290669473   -4.022203898021
 H   -0.996512097942    2.134160669473    1.908146101979
 H   -2.673012097942    1.651590669473    2.360626101979
