18
-1 1 
 C    0.966164143369   -0.387745034474   -0.420687102871
 C    2.052164143369   -0.413745034474   -1.482687102871
 C    1.191164143369    0.662254965526    0.657312897129
 O    0.224164143369    0.920254965526    1.412312897129
 O    2.334164143369    1.130254965526    0.834312897129
 H    0.026164143369   -0.174745034474   -0.932687102871
 H    0.851164143369   -1.364745034474    0.043312897129
 H    3.035164143369   -0.422745034474   -1.017687102871
 H    1.965164143369    0.489254965526   -2.088687102871
 H    1.965693143369   -1.297750034474   -2.131577102871
 C   -2.831835856631   -0.363745034474   -0.342687102871
 C   -3.780835856631   -1.524745034474   -0.641687102871
 H   -2.112835856631   -0.647745034474    0.427312897129
 H   -2.298835856631   -0.066745034474   -1.242687102871
 H   -3.383835856631    0.516254965526   -0.015687102871
 H   -4.521835856631   -1.193745034474   -1.371687102871
 H   -4.292486856631   -1.853664034474    0.274842897129
 H   -3.221801856631   -2.382930034474   -1.042937102871
