20
0 1 
 C   -1.337111211615   -1.827529792586   -1.712509041144
 C   -1.660111211615    0.577470207414   -1.264509041144
 N   -0.486111211615    0.658470207414   -0.675509041144
 N   -2.091111211615   -0.573529792586   -1.759509041144
 N   -2.409111211615    1.658470207414   -1.351509041144
 H   -0.032111211615   -0.169529792586   -0.299509041144
 H   -0.169111211615    1.537470207414   -0.306509041144
 H   -2.971111211615   -0.570529792586   -2.256509041144
 H   -3.379111211615    1.564470207414   -1.600509041144
 H   -2.084111211615    2.530470207414   -0.963509041144
 H   -2.039111211615   -2.663529792586   -1.683509041144
 H   -0.739111211615   -1.877529792586   -0.802509041144
 H   -0.695741211615   -1.941389792586   -2.598899041144
 C    3.052888788385   -0.930529792586    2.300490958856
 C    1.942888788385   -0.089529792586    1.644490958856
 O    0.881888788385   -0.653529792586    1.276490958856
 O    2.115888788385    1.143470207414    1.508490958856
 H    3.313888788385   -0.504529792586    3.272490958856
 H    3.943888788385   -0.894529792586    1.674490958856
 H    2.760248788385   -1.980189792586    2.450750958856
