23
0 1 
 C    1.596226189369    2.190451807373   -0.742459117137
 C    1.483226189369    3.122451807373   -1.952459117137
 H    2.225226189369    2.631451807373    0.032540882863
 H    0.605226189369    2.016451807373   -0.327459117137
 H    2.002226189369    1.222451807373   -1.039459117137
 H    1.064226189369    2.531451807373   -2.769459117137
 H    2.475516189369    3.478161807373   -2.266827117137
 H    0.768956189369    3.941341807373   -1.781467117137
 C   -1.651773810631    0.077451807373   -1.544459117137
 C   -0.969773810631   -0.497548192627   -0.306459117137
 C   -0.923773810631    0.190451807373    0.904540882863
 C   -0.315773810631   -1.732548192627   -0.389459117137
 C   -0.254773810631   -0.353548192627    2.020540882863
 C    0.345226189369   -2.284548192627    0.730540882863
 C    0.392226189369   -1.574548192627    1.927540882863
 H   -2.146773810631   -0.740548192627   -2.069459117137
 H   -0.869773810631    0.462451807373   -2.201459117137
 H   -1.396773810631    1.154451807373    1.013540882863
 H   -0.319773810631   -2.277548192627   -1.323459117137
 H   -0.219773810631    0.186451807373    2.954540882863
 H    0.841226189369   -3.243548192627    0.651540882863
 H    0.913226189369   -1.980548192627    2.783540882863
 H   -2.383243810631    0.880423807373   -1.370708117137
