30
0 1 
 C   -1.662206085827   -1.245970568741    2.170257943615
 C   -1.146206085827    0.236029431259    0.066257943615
 C   -0.907206085827   -0.184970568741    1.420257943615
 C   -0.212206085827    1.254029431259   -0.244742056385
 C    0.122793914173    0.577029431259    1.868257943615
 C   -2.041206085827   -0.181970568741   -0.924742056385
 C   -0.170206085827    1.866029431259   -1.488742056385
 C   -1.999206085827    0.418029431259   -2.165742056385
 C   -1.078206085827    1.432029431259   -2.443742056385
 N    0.555793914173    1.434029431259    0.876257943615
 H   -2.764206085827   -0.955970568741   -0.717742056385
 H   -1.087206085827   -2.165970568741    2.164257943615
 H   -2.565206085827   -1.432970568741    1.595257943615
 H    0.559793914173    0.513029431259    2.855257943615
 H    1.318793914173    2.096029431259    0.983257943615
 H    0.543793914173    2.646029431259   -1.698742056385
 H   -2.680206085827    0.090029431259   -2.932742056385
 H   -1.071206085827    1.868029431259   -3.426742056385
 H   -1.933946085827   -0.950380568741    3.194357943615
 C    2.011793914173   -1.673970568741   -0.230742056385
 C    3.364793914173   -1.170970568741   -0.588742056385
 C    2.155793914173   -2.061970568741    1.236257943615
 H    1.660793914173   -2.479970568741   -0.852742056385
 H    1.309793914173   -0.856970568741   -0.323742056385
 H    4.021793914173   -2.010970568741   -0.814742056385
 H    3.307793914173   -0.494970568741   -1.439742056385
 H    1.188793914173   -1.955970568741    1.722257943615
 H    3.720943914173   -0.645400568741    0.309557943615
 H    2.860493914173   -1.312430568741    1.625597943615
 H    2.478983914173   -3.104950568741    1.369417943615
