20
0 1 
 C   -0.335506276820   -0.901224089211    0.179982931925
 C   -0.670506276820   -2.309224089211    0.657982931925
 C   -0.778506276820   -0.170224089211   -2.454017068075
 S    0.498493723180   -0.866224089211   -1.415017068075
 H   -1.214506276820   -0.290224089211    0.137982931925
 H    0.351493723180   -0.480224089211    0.907982931925
 H   -1.063506276820   -2.252224089211    1.673982931925
 H    0.261493723180   -2.873224089211    0.698982931925
 H   -1.042506276820    0.824775910789   -2.094017068075
 H   -0.412506276820   -0.095224089211   -3.478017068075
 H   -1.662506276820   -0.808224089211   -2.434017068075
 H   -1.384102276820   -2.854492089211    0.022795931925
 C    0.417493723180    1.991775910789    1.806982931925
 C    0.360493723180    3.145775910789    2.800982931925
 H    1.185493723180    2.175775910789    1.053982931925
 H    0.660493723180    1.077775910789    2.349982931925
 H   -0.544506276820    1.875775910789    1.307982931925
 H   -0.376506276820    2.913775910789    3.566982931925
 H    0.068300723180    4.066974910789    2.275611931925
 H    1.343836723180    3.280064910789    3.275326931925
