19
0 1 
 C    0.897006481637   -0.510596681760   -0.925176297030
 C    0.201006481637   -1.146596681760   -2.130176297030
 C    2.397006481637   -0.375596681760   -1.132176297030
 H    0.483006481637    0.488403318240   -0.777176297030
 H    0.703006481637   -1.106596681760   -0.032176297030
 H    0.536006481637   -2.180596681760   -2.231176297030
 H    0.528006481637   -0.604596681760   -3.020176297030
 H    2.841006481637   -1.368596681760   -1.226176297030
 H    2.579006481637    0.177403318240   -2.055176297030
 H   -0.898003518363   -1.110566681760   -2.100629297030
 H    2.856466481637    0.155273318240   -0.285377697030
 C   -1.744993518363    0.317403318240    1.704823702970
 C   -1.687993518363    1.680403318240    2.427823702970
 H   -1.221993518363   -0.449596681760    2.273823702970
 H   -2.785993518363    0.009403318240    1.596823702970
 H   -1.302993518363    0.404403318240    0.714823702970
 H   -2.155993518363    1.581403318240    3.403823702970
 H   -0.642263518363    2.000626318240    2.545762702970
 H   -2.257873518363    2.420175318240    1.846471702970
