17
0 1 
 C    0.011479360148   -1.888883505952   -1.388932956622
 C   -0.937520639852   -3.049883505952   -1.687932956622
 H    0.730479360148   -2.172883505952   -0.618932956622
 H    0.544479360148   -1.591883505952   -2.288932956622
 H   -0.540520639852   -1.008883505952   -1.061932956622
 H   -1.678520639852   -2.718883505952   -2.417932956622
 H   -1.449171639852   -3.378802505952   -0.771402956622
 H   -0.378486639852   -3.908068505952   -2.089182956622
 C    0.527479360148    0.577116494048    2.034067043378
 C    0.175479360148    1.304116494048    0.751067043378
 O   -0.927520639852    1.825116494048    0.586067043378
 N    1.108479360148    1.332116494048   -0.180932956622
 H    1.533479360148    0.858116494048    2.344067043378
 H    0.526479360148   -0.490883505952    1.828067043378
 H    0.922479360148    1.782116494048   -1.061932956622
 H    1.937479360148    0.750116494048   -0.024932956622
 H   -0.173145639852    0.810656494048    2.849287043378
