23
0 1 
 C    0.285214211146    3.239476279347   -1.197739247113
 C    0.886214211146    2.232476279347   -2.225739247113
 H    0.483214211146    4.262476279347   -1.521739247113
 H   -0.793785788854    3.090476279347   -1.137739247113
 H    0.696214211146    3.080476279347   -0.200739247113
 H    0.768214211146    1.215476279347   -1.852739247113
 H    1.949074211146    2.481546279347   -2.361012247113
 H    0.382934211146    2.321536279347   -3.199789247113
 C    1.945214211146   -2.071523720653    0.372260752887
 C   -0.652785788854    0.661476279347    1.057260752887
 C   -1.807785788854    0.007476279347    0.662260752887
 C    0.564214211146   -0.026523720653    0.951260752887
 C    0.629214211146   -1.353523720653    0.508260752887
 C   -1.755785788854   -1.320523720653    0.246260752887
 C   -0.528785788854   -2.002523720653    0.137260752887
 H   -0.683785788854    1.686476279347    1.398260752887
 H   -2.749785788854    0.529476279347    0.685260752887
 H    1.477214211146    0.481476279347    1.231260752887
 H   -2.667785788854   -1.835523720653   -0.007739247113
 H    1.812214211146   -3.142523720653    0.534260752887
 H    2.597214211146   -1.702523720653    1.164260752887
 H   -0.504785788854   -3.025523720653   -0.212739247113
 H    2.413964211146   -1.897803720653   -0.607585247113
