23
0 1 
 C   -2.357505600663    0.651025666646   -1.956621458319
 C   -3.013505600663    0.700025666646   -3.329621458319
 H   -1.335505600663    0.284025666646   -2.044621458319
 H   -2.341505600663    1.653025666646   -1.532621458319
 H   -2.924505600663   -0.006974333354   -1.304621458319
 H   -4.005505600663    1.131025666646   -3.203621458319
 H   -3.084695600663   -0.313864333354   -3.750281458319
 H   -2.439795600663    1.346085666646   -4.010401458319
 C    1.026494399337    0.776025666646    3.105378541681
 C    0.766494399337   -0.972974333354   -0.836621458319
 C    0.107494399337   -1.570974333354    0.235378541681
 C    1.508494399337    0.188025666646   -0.631621458319
 C    0.190494399337   -1.004974333354    1.511378541681
 C    1.591494399337    0.747025666646    0.645378541681
 C    0.932494399337    0.159025666646    1.725378541681
 H    0.694494399337   -1.400974333354   -1.826621458319
 H   -0.469505600663   -2.471974333354    0.079378541681
 H    2.000494399337    0.666025666646   -1.463621458319
 H   -0.334505600663   -1.468974333354    2.334378541681
 H    2.170494399337    1.646025666646    0.799378541681
 H    0.019494399337    0.950025666646    3.478378541681
 H    1.534494399337    1.739025666646    3.029378541681
 H    1.556764399337    0.150185666646    3.838278541681
