24
0 1 
 C    1.022159268448   -3.222632717820   -0.130291226207
 C    2.482159268448   -2.753632717820   -0.366291226207
 H    1.022159268448   -4.134632717820    0.467708773793
 H    0.498159268448   -2.463632717820    0.429708773793
 H    0.512159268448   -3.405632717820   -1.076291226207
 H    2.820159268448   -2.307632717820    0.569708773793
 H    3.204839268448   -3.540232717820   -0.628961226207
 H    2.452729268448   -1.958352717820   -1.125681226207
 C    0.817159268448    3.035367282180    1.470708773793
 C   -1.096840731552   -0.209632717820   -0.610291226207
 C   -0.760840731552   -0.297632717820    0.742708773793
 C   -0.792840731552    0.977367282180   -1.266291226207
 C   -0.201840731552    0.770367282180    1.430708773793
 C   -0.194840731552    2.022367282180   -0.592291226207
 C    0.128159268448    1.918367282180    0.760708773793
 O   -1.669840731552   -1.274632717820   -1.281291226207
 H   -1.009840731552   -1.192632717820    1.294708773793
 H   -1.783840731552   -2.045632717820   -0.715291226207
 H   -1.023840731552    1.072367282180   -2.317291226207
 H    0.020159268448    0.674367282180    2.486708773793
 H    0.037159268448    2.932367282180   -1.129291226207
 H    1.479159268448    3.530367282180    0.769708773793
 H    1.441159268448    2.616367282180    2.262708773793
 H    0.132729268448    3.776957282180    1.908428773793
