27
0 1 
 C   -0.096842007391   -0.203087710358    2.681100071627
 C    1.133157992609    0.107912289642    0.494100071627
 C    0.169157992609    0.550912289642    1.400100071627
 C    1.362157992609    0.800912289642   -0.697899928373
 C   -0.557842007391    1.701912289642    1.105100071627
 C    0.629157992609    1.948912289642   -0.978899928373
 C   -0.331842007391    2.403912289642   -0.076899928373
 O    0.844157992609    2.640912289642   -2.132899928373
 H    1.703157992609   -0.786087710358    0.707100071627
 H    2.104157992609    0.453912289642   -1.400899928373
 H    0.125157992609   -1.259087710358    2.530100071627
 H   -1.159842007391   -0.119087710358    2.914100071627
 H   -1.311842007391    2.055912289642    1.795100071627
 H   -0.908842007391    3.288912289642   -0.289899928373
 H    0.258157992609    3.415912289642   -2.162899928373
 H    0.491111992609    0.170606289642    3.532370071627
 C   -1.125842007391   -2.604087710358   -0.621899928373
 C   -2.053842007391   -3.563087710358    0.145100071627
 C    0.277157992609   -3.157087710358   -0.939899928373
 H   -1.595842007391   -2.304087710358   -1.556899928373
 H   -1.006842007391   -1.700087710358   -0.025899928373
 H   -2.988842007391   -3.039087710358    0.344100071627
 H    0.208157992609   -4.027087710358   -1.590899928373
 H    0.846157992609   -2.386087710358   -1.457899928373
 H    0.813157992609   -3.415087710358   -0.026899928373
 H   -2.278409007391   -4.455652710358   -0.457309928373
 H   -1.606592007391   -3.840025010358    1.111160071627
