15
0 1 
 C    1.618916012671   -0.096570985649    2.557873077825
 N    1.850916012671   -0.251570985649    1.115873077825
 H    1.085916012671    0.186429014351    0.590873077825
 H    2.714916012671    0.192429014351    0.831873077825
 H    1.888916012671   -1.223570985649    0.840873077825
 H    1.620916012671    0.969429014351    2.807873077825
 H    2.423916012671   -0.571570985649    3.128873077825
 H    0.654186012671   -0.518320985649    2.876343077825
 C   -1.930083987329    0.503429014351   -1.932126922175
 C   -0.908083987329    0.078429014351   -0.902126922175
 O   -0.631083987329   -1.136570985649   -0.834126922175
 O   -0.319083987329    0.940429014351   -0.216126922175
 H   -2.384083987329   -0.371570985649   -2.403126922175
 H   -1.388083987329    1.045429014351   -2.708126922175
 H   -2.736593987329    1.121419014351   -1.510676922175
