15
0 1 
 C   -0.745405363127   -2.314051392895    1.457898101054
 N    0.700594636873   -2.026051392895    1.207898101054
 H    0.748594636873   -1.355051392895    0.436898101054
 H    1.146594636873   -1.608051392895    2.014898101054
 H    1.215594636873   -2.859051392895    0.948898101054
 H   -1.283405363127   -1.374051392895    1.620898101054
 H   -0.858405363127   -2.930051392895    2.353898101054
 H   -1.204865363127   -2.844921392895    0.611099501054
 C   -0.069405363127    2.203948607105    0.296898101054
 C   -0.009405363127    1.116948607105   -0.770101898946
 O   -0.283405363127   -0.055051392895   -0.457101898946
 O    0.320594636873    1.418948607105   -1.943101898946
 H   -0.897405363127    2.849948607105    0.003898101054
 H    0.857594636873    2.781948607105    0.267898101054
 H   -0.235025363127    1.855569607105    1.327044171054
