23
0 1 
 C    3.220244651658    0.850922126831   -2.071522352159
 C   -0.508755348342   -0.024077873169   -0.129522352159
 C   -0.029755348342    1.273922126831   -0.173522352159
 C    0.228244651658   -1.056077873169   -0.711522352159
 C    1.154244651658    1.559922126831   -0.827522352159
 C    1.429244651658   -0.770077873169   -1.361522352159
 C    1.901244651658    0.543922126831   -1.420522352159
 H   -1.447755348342   -0.233077873169    0.362477647841
 H   -0.591755348342    2.070922126831    0.285477647841
 H   -0.130755348342   -2.072077873169   -0.645522352159
 H    1.494244651658    2.583922126831   -0.876522352159
 H    1.998244651658   -1.571077873169   -1.811522352159
 H    3.237244651658    1.905922126831   -2.346522352159
 H    3.305244651658    0.281922126831   -2.996522352159
 H    4.084034651658    0.632102126831   -1.426552352159
 C   -2.596755348342   -1.183077873169    2.893477647841
 C   -4.110755348342   -0.958077873169    3.091477647841
 H   -2.193755348342   -1.818077873169    3.682477647841
 H   -2.423755348342   -1.670077873169    1.932477647841
 H   -2.073755348342   -0.227077873169    2.908477647841
 H   -4.483755348342   -0.329077873169    2.282477647841
 H   -4.302635348342   -0.465547873169    4.056147647841
 H   -4.653485348342   -1.914177873169    3.055347647841
