26
0 1 
 C    0.087050708739    0.720590506414   -0.272784790151
 C    0.232050708739    1.980590506414   -1.068784790151
 C    1.287050708739    0.192590506414   -2.315784790151
 C   -0.342949291261   -2.071409493586    0.292215209849
 C    0.403050708739   -1.649409493586   -0.962784790151
 O    0.834050708739   -2.513409493586   -1.733784790151
 N    0.572050708739   -0.335409493586   -1.159784790151
 H    0.702050708739    0.775590506414    0.621215209849
 H   -0.966949291261    0.599590506414   -0.020784790151
 H    0.641050708739    2.780590506414   -0.450784790151
 H   -0.752949291261    2.280590506414   -1.431784790151
 H    0.839050708739   -0.188409493586   -3.235784790151
 H   -0.913949291261   -1.248409493586    0.714215209849
 H    0.882680708739    1.779259506414   -1.932584790151
 H    1.160370708739    1.283753506414   -2.258204790151
 H    2.358280708739   -0.054283493586   -2.276804790151
 H   -1.057779291261   -2.857121693586    0.006435209849
 H    0.380460708739   -2.423765993586    1.042235209849
 C   -1.737949291261    1.779590506414    2.785215209849
 C   -1.232949291261    1.682590506414    4.217215209849
 H   -2.657949291261    2.367590506414    2.758215209849
 H   -0.989949291261    2.273590506414    2.162215209849
 H   -1.941949291261    0.783590506414    2.388215209849
 H   -1.040949291261    2.687590506414    4.594215209849
 H   -0.292959291261    1.112098506414    4.248195209849
 H   -1.999639291261    1.222000506414    4.857565209849
