34
0 1 
 C    2.834326432351   -0.161575316071    0.287656791986
 C    0.214326432351   -1.366575316071   -2.151343208014
 C    1.133326432351   -0.364575316071   -1.725343208014
 C    1.857326432351   -0.894575316071   -0.593343208014
 C    1.376326432351   -2.151575316071   -0.399343208014
 C   -0.659673567649   -1.179575316071   -3.226343208014
 C   -0.620673567649    0.037424683929   -3.893343208014
 C    1.154326432351    0.860424683929   -2.415343208014
 C    0.275326432351    1.051424683929   -3.496343208014
 N    0.395326432351   -2.440575316071   -1.319343208014
 H   -0.151673567649   -3.300575316071   -1.308343208014
 H   -1.345673567649   -1.959575316071   -3.521343208014
 H    1.654326432351   -2.781575316071    0.432656791986
 H   -1.288673567649    0.211424683929   -4.729343208014
 H    1.841326432351    1.637424683929   -2.119343208014
 H    2.798326432351   -0.589575316071    1.274656791986
 H    2.499326432351    0.872424683929    0.387656791986
 H    0.285326432351    1.989424683929   -4.031343208014
 H    3.888206432351   -0.165165316071   -0.027503208014
 C   -1.436673567649    1.393424683929    5.040656791986
 C   -0.978673567649    0.620424683929    0.824656791986
 C   -1.298673567649    1.904424683929    1.266656791986
 C   -0.779673567649   -0.403575316071    1.754656791986
 C   -1.423673567649    2.156424683929    2.637656791986
 C   -0.910673567649   -0.144575316071    3.121656791986
 C   -1.235673567649    1.133424683929    3.571656791986
 H   -0.902673567649    0.418424683929   -0.233343208014
 H   -1.460673567649    2.698424683929    0.551656791986
 H   -0.523673567649   -1.398575316071    1.418656791986
 H   -1.688673567649    3.145424683929    2.970656791986
 H   -0.771673567649   -0.947575316071    3.830656791986
 H   -1.122673567649    2.416424683929    5.246656791986
 H   -0.785673567649    0.739424683929    5.622656791986
 H   -2.479053567649    1.266534683929    5.368286791986
