19
0 1 
 C   -0.604560409912   -1.819380861099   -1.031833704157
 C   -1.197560409912   -3.063380861099   -1.674833704157
 H   -0.449560409912   -1.051380861099   -1.786833704157
 H   -1.300560409912   -1.434380861099   -0.286833704157
 H    0.342439590088   -2.059380861099   -0.545833704157
 H   -2.058560409912   -2.758380861099   -2.269833704157
 H   -0.474197409912   -3.566210861099   -2.333543704157
 H   -1.555422409912   -3.752410861099   -0.895618704157
 C    0.654439590088    1.104619138901    0.934166295843
 C    1.189439590088    1.956619138901   -0.228833704157
 C    0.006439590088    1.899619138901    2.057166295843
 H   -0.080560409912    0.402619138901    0.546166295843
 H    1.465439590088    0.534619138901    1.387166295843
 H    1.885439590088    2.687619138901    0.181166295843
 H   -0.910560409912    2.377619138901    1.714166295843
 H   -0.246560409912    1.224619138901    2.875166295843
 H    0.702439590088    2.650619138901    2.426166295843
 H    1.733699590088    1.321059138901   -0.942863704157
 H    0.372639590088    2.493499138901   -0.733412704157
