17
0 1 
 C   -0.138943248228    1.373170668990    0.995699809687
 C   -1.570943248228    0.201170668990   -1.027300190313
 S   -0.792943248228    1.790170668990   -0.616300190313
 H    0.604056751772    0.584170668990    0.902699809687
 H    0.350056751772    2.253170668990    1.414699809687
 H   -0.932943248228    1.066170668990    1.674699809687
 H   -0.813943248228   -0.583829331010   -1.035300190313
 H   -1.973943248228    0.277170668990   -2.033300190313
 H   -2.368663248228   -0.071859331010   -0.320831190313
 C    1.586056751772   -1.977829331010    0.284699809687
 C    1.813056751772   -3.329829331010    1.008699809687
 H    1.559056751772   -2.120829331010   -0.796300190313
 H    0.628056751772   -1.569829331010    0.605699809687
 H    2.366056751772   -1.258829331010    0.536699809687
 H    1.974056751772   -3.137829331010    2.068699809687
 H    2.715766751772   -3.790149331010    0.580648809687
 H    0.934246751772   -3.986629331010    0.929259809687
