27
0 1 
 C   -0.747259892604    0.171962913386   -1.239874175089
 C   -0.304259892604   -0.534037086614   -2.519874175089
 C   -0.990259892604   -0.791037086614   -0.101874175089
 C    0.091740107396   -1.326037086614    0.626125824911
 C   -2.289259892604   -1.203037086614    0.208125824911
 C   -0.147259892604   -2.264037086614    1.630125824911
 C   -2.532259892604   -2.147037086614    1.230125824911
 C   -1.445259892604   -2.683037086614    1.935125824911
 H    0.025740107396    0.852962913386   -0.938874175089
 H   -1.654259892604    0.748962913386   -1.426874175089
 H    0.682740107396   -0.972037086614   -2.356874175089
 H    1.105740107396   -1.024037086614    0.403125824911
 H   -3.127259892604   -0.812037086614   -0.352874175089
 H    0.686740107396   -2.676037086614    2.184125824911
 H   -3.541259892604   -2.468037086614    1.451125824911
 H   -1.626259892604   -3.427037086614    2.690125824911
 H   -0.258249892604    0.173472913386   -3.360892175089
 H   -1.012349892604   -1.353177086614   -2.713842175089
 C    0.855740107396    2.861962913386    0.681125824911
 C    1.918740107396    2.365962913386   -0.294874175089
 O    2.875740107396    1.715962913386    0.158125824911
 N    1.763740107396    2.575962913386   -1.609874175089
 H    1.349740107396    3.448962913386    1.452125824911
 H    0.424740107396    1.980962913386    1.159125824911
 H    2.343740107396    2.026962913386   -2.247874175089
 H    0.966740107396    3.076962913386   -1.980874175089
 H    0.042010107396    3.461742913386    0.247424624911
