26
-1 1 
 C   -0.058378439202    0.550738760242   -3.992834428750
 C   -0.698378439202    1.109738760242   -1.604834428750
 C    0.297621560798   -0.494261239758   -0.381834428750
 C   -0.124378439202    0.290738760242   -2.517834428750
 C    0.515621560798   -0.775261239758   -1.759834428750
 C    0.786621560798   -1.313261239758    0.628165571250
 C    1.511621560798   -2.442261239758    0.273165571250
 C    1.265621560798   -1.923261239758   -2.098834428750
 C    1.753621560798   -2.756261239758   -1.071834428750
 N   -0.447378439202    0.661738760242   -0.322834428750
 H   -0.648378439202    1.199738760242    0.523165571250
 H   -1.224378439202    2.017738760242   -1.860834428750
 H    0.578621560798   -1.086261239758    1.664165571250
 H    0.966621560798    0.534738760242   -4.333834428750
 H   -0.413378439202    1.571738760242   -4.142834428750
 H    1.892621560798   -3.094261239758    1.046165571250
 H    1.474621560798   -2.160261239758   -3.128834428750
 H    2.323621560798   -3.638261239758   -1.327834428750
 H   -0.647668439202   -0.118671239758   -4.636751428750
 C   -2.406378439202    1.366738760242    3.280165571250
 C   -0.950378439202    1.513738760242    2.891165571250
 O   -0.687378439202    2.343738760242    1.999165571250
 O   -0.087378439202    0.781738760242    3.438165571250
 H   -2.924378439202    0.903738760242    2.439165571250
 H   -2.851378439202    2.346738760242    3.443165571250
 H   -2.552248439202    0.745728760242    4.176303571250
