23
0 1 
 C    0.987225850240    0.920383887109    2.323188946448
 C    1.281225850240    2.226383887109    3.057188946448
 C    1.754225850240   -0.213616112891    2.909188946448
 H   -0.084774149760    0.712383887109    2.304188946448
 H    1.328225850240    1.033383887109    1.293188946448
 H    2.339225850240    2.259383887109    3.317188946448
 H    0.710225850240    2.264383887109    3.985188946448
 H    1.945225850240   -0.956616112891    2.131188946448
 H    2.731225850240    0.119383887109    3.268188946448
 H    1.082294850240    3.106438887109    2.427959946448
 H    1.186061850240   -0.654458112891    3.741558946448
 C   -2.468774149760    0.833383887109   -1.736811053552
 C    0.740225850240   -0.794616112891   -1.111811053552
 C   -1.308774149760   -0.119616112891   -1.576811053552
 C   -1.236774149760   -1.455616112891   -1.822811053552
 N   -0.055774149760    0.270383887109   -1.133811053552
 N    0.049225850240   -1.852616112891   -1.519811053552
 H    1.782225850240   -0.799616112891   -0.809811053552
 H    0.417225850240   -2.795616112891   -1.588811053552
 H   -2.043774149760   -2.082616112891   -2.182811053552
 H   -2.670774149760    1.336383887109   -0.789811053552
 H   -3.348774149760    0.242383887109   -1.997811053552
 H   -2.289253149760    1.568769887109   -2.534921053552
