16
0 1 
 C    0.384625004076    0.172411302850    1.792537444002
 C    1.657625004076   -0.319588697150    2.435537444002
 H    0.566625004076    1.061411302850    1.190537444002
 H   -0.009374995924   -0.603588697150    1.138537444002
 H   -0.365374995924    0.389411302850    2.555537444002
 H    2.434625004076   -0.400588697150    1.673537444002
 H    1.474625004076   -1.324588697150    2.811537444002
 H    2.002065004076    0.336491302850    3.248507444002
 C   -0.708374995924   -0.531588697150   -1.797462555998
 C   -1.335374995924    0.691411302850   -2.426462555998
 H   -1.380374995924   -1.011588697150   -1.090462555998
 H   -0.437374995924   -1.256588697150   -2.558462555998
 H    0.195625004076   -0.246588697150   -1.260462555998
 H   -2.236374995924    0.388411302850   -2.959462555998
 H   -1.597244995924    1.411561302850   -1.637282555998
 H   -0.629584995924    1.105681302850   -3.161472555998
