32
0 1 
 C    1.496924689442    2.535337294727    2.538261753482
 C    1.897924689442    0.427337294727    1.213261753482
 C    2.071924689442    1.800337294727    1.346261753482
 C    2.509924689442   -0.246662705273    0.206261753482
 C    2.848924689442    2.487337294727    0.399261753482
 C    3.303924689442    0.450337294727   -0.714738246518
 C    3.446924689442    1.813337294727   -0.654738246518
 O    3.891924689442   -0.200662705273   -1.712738246518
 H    1.128924689442   -0.060662705273    1.768261753482
 H    2.348924689442   -1.306662705273    0.075261753482
 H    0.672924689442    1.975337294727    2.984261753482
 H    1.134924689442    3.514337294727    2.219261753482
 H    2.991924689442    3.555337294727    0.497261753482
 H    4.034924689442    2.347337294727   -1.386738246518
 H    4.035924689442    0.385337294727   -2.492738246518
 H    2.316074689442    2.656027294727    3.262431753482
 C   -4.014075310558   -1.816662705273   -2.822738246518
 C   -1.359075310558   -0.742662705273   -0.294738246518
 C   -2.076075310558   -0.797662705273    0.877261753482
 C   -1.973075310558   -1.081662705273   -1.509738246518
 C   -3.311075310558   -1.476662705273   -1.534738246518
 C   -3.389075310558   -1.157662705273    0.851261753482
 C   -4.015075310558   -1.482662705273   -0.340738246518
 O   -1.540075310558   -0.482662705273    2.102261753482
 H   -0.324075310558   -0.439662705273   -0.272738246518
 H   -1.403075310558   -1.040662705273   -2.427738246518
 H   -3.950075310558   -1.079662705273    1.758261753482
 H   -2.196075310558   -0.628662705273    2.814261753482
 H   -4.469075310558   -2.800662705273   -2.701738246518
 H   -3.289075310558   -1.881662705273   -3.633738246518
 H   -5.067075310558   -1.740662705273   -0.335738246518
 H   -4.797541310558   -1.084232705273   -3.067118246518
