14
1 1 
 C    2.522404744515   -0.087397036530    0.187008682618
 O    1.234404744515   -0.156397036530    0.792008682618
 H    1.337404744515   -0.152397036530    1.754008682618
 H    3.089404744515    0.727602963470    0.631008682618
 H    3.062884744515   -1.031087036530    0.352318682618
 H    2.421464744515    0.110182963470   -0.890381317382
 C   -2.285595255485    0.803602963470   -0.534991317382
 N   -1.507595255485   -0.485397036530   -0.514991317382
 H   -1.373595255485   -0.849397036530   -1.451991317382
 H   -0.592595255485   -0.372397036530   -0.076991317382
 H   -2.024595255485   -1.201397036530    0.005008682618
 H   -1.755595255485    1.509602963470   -1.185991317382
 H   -2.302595255485    1.220602963470    0.479008682618
 H   -3.325675255485    0.737352963470   -0.886911317382
