17
0 1 
 C   -0.027087699235    0.489419528768    1.298503361026
 C   -1.563087699235   -1.838580471232    1.551503361026
 S    0.124912300765   -1.301580471232    1.132503361026
 H   -0.417087699235    0.739419528768    2.285503361026
 H    0.951912300765    0.951419528768    1.174503361026
 H   -0.700087699235    0.885419528768    0.543503361026
 H   -2.015087699235   -1.092580471232    2.199503361026
 H   -1.481087699235   -2.764580471232    2.119503361026
 H   -2.215777699235   -2.042500471232    0.689873361026
 C    1.027912300765    2.009419528768   -1.959496638974
 C    0.371912300765    2.058419528768   -3.332496638974
 H    2.049912300765    1.642419528768   -2.047496638974
 H    1.043912300765    3.011419528768   -1.535496638974
 H    0.460912300765    1.351419528768   -1.307496638974
 H   -0.620087699235    2.489419528768   -3.206496638974
 H    0.300722300765    1.044529528768   -3.753156638974
 H    0.945622300765    2.704479528768   -4.013276638974
