26
0 1 
 C    0.719397094593    1.543000080943    2.365900808561
 C    0.772397094593   -0.260999919057    0.651900808561
 C    1.251397094593    0.962000080943    1.093900808561
 C    1.223397094593   -0.801999919057   -0.582099191439
 C    2.147397094593    1.678000080943    0.297900808561
 C    2.115397094593   -0.080999919057   -1.345099191439
 C    2.598397094593    1.149000080943   -0.906099191439
 H    0.063397094593   -0.815999919057    1.250900808561
 H    0.858397094593   -1.760999919057   -0.926099191439
 H    1.330397094593    2.394000080943    2.669900808561
 H    0.776397094593    0.789000080943    3.152900808561
 H    2.510397094593    2.643000080943    0.622900808561
 H    2.457397094593   -0.481999919057   -2.290099191439
 H    3.300397094593    1.706000080943   -1.510099191439
 H   -0.325442905407    1.864160080943    2.242770808561
 C   -2.698602905407   -1.011999919057   -0.823099191439
 C   -2.711602905407   -2.302999919057   -0.042099191439
 C   -4.147602905407   -0.528999919057   -0.809099191439
 H   -2.321602905407   -1.160999919057   -1.836099191439
 H   -2.071602905407   -0.288999919057   -0.303099191439
 H   -3.096602905407   -3.112999919057   -0.664099191439
 H   -1.726602905407   -2.549999919057    0.353900808561
 H   -4.184602905407    0.557000080943   -0.774099191439
 H   -3.428932905407   -2.072759919057    0.759410808561
 H   -4.559192905407   -0.951849919057    0.119230808561
 H   -4.703522905407   -0.852509919057   -1.701449191439
