31
0 1 
 C   -2.585429844470    1.116324746194    2.699918019840
 C   -0.329429844470    0.635324746194    1.702918019840
 C   -1.103429844470    0.894324746194    2.829918019840
 C    1.040570155530    0.439324746194    1.816918019840
 C   -0.488429844470    0.965324746194    4.074918019840
 C    1.648570155530    0.508324746194    3.062918019840
 C    0.881570155530    0.769324746194    4.192918019840
 H   -0.792429844470    0.581324746194    0.727918019840
 H    1.633570155530    0.240324746194    0.933918019840
 H   -3.086429844470    0.684324746194    3.566918019840
 H   -2.936429844470    0.582324746194    1.822918019840
 H   -1.079429844470    1.169324746194    4.956918019840
 H    2.716570155530    0.364324746194    3.151918019840
 H    1.349570155530    0.815324746194    5.165918019840
 H   -2.863989844470    2.176734746194    2.610888019840
 C    0.530570155530   -3.547675253806   -2.232081980160
 C   -1.033429844470   -0.088675253806   -2.024081980160
 C   -0.036429844470    0.698324746194   -2.590081980160
 C   -0.847429844470   -1.462675253806   -1.910081980160
 C    0.331570155530   -2.058675253806   -2.351081980160
 C    1.142570155530    0.114324746194   -3.038081980160
 C    1.320570155530   -1.259675253806   -2.919081980160
 O   -0.217429844470    2.043324746194   -2.704081980160
 H   -1.944429844470    0.374324746194   -1.674081980160
 H   -1.627429844470   -2.072675253806   -1.473081980160
 H    1.921570155530    0.718324746194   -3.475081980160
 H    0.548570155530    2.503324746194   -3.060081980160
 H   -0.181429844470   -3.959675253806   -1.519081980160
 H    1.525570155530   -3.719675253806   -1.838081980160
 H    2.239570155530   -1.709675253806   -3.272081980160
 H    0.407966155530   -4.071985253806   -3.191281980160
