27
0 1 
 C   -1.641650700272    3.380707007112   -1.643839113986
 C   -1.749650700272    4.880707007112   -1.617839113986
 H   -0.997650700272    3.062707007112   -0.835839113986
 H   -2.630650700272    2.941707007112   -1.513839113986
 H   -1.223650700272    3.064707007112   -2.598839113986
 H   -2.177650700272    5.185707007112   -0.663839113986
 H   -2.411650700272    5.187707007112   -2.425839113986
 H   -0.787970700272    5.399207007112   -1.745689113986
 C    2.306349299728    0.749707007112    1.923160886014
 C    0.531349299728   -0.511292992888    0.438160886014
 C    1.616349299728   -0.486292992888    1.406160886014
 C    0.129349299728   -1.873292992888    0.275160886014
 C    1.825349299728   -1.785292992888    1.781160886014
 C   -1.165650700272    0.091707007112   -1.208839113986
 C   -1.537650700272   -1.262292992888   -1.339839113986
 C   -0.142650700272    0.475707007112   -0.318839113986
 C   -0.896650700272   -2.259292992888   -0.590839113986
 N    0.930349299728   -2.629292992888    1.106160886014
 H   -1.664650700272    0.853707007112   -1.791839113986
 H   -2.327650700272   -1.534292992888   -2.025839113986
 H    0.124349299728    1.521707007112   -0.241839113986
 H   -1.160650700272   -3.309292992888   -0.660839113986
 H    2.227349299728    1.512707007112    1.140160886014
 H    3.357349299728    0.506707007112    2.068160886014
 H    2.597349299728   -2.013292992888    2.513160886014
 H    0.865349299728   -3.638292992888    1.198160886014
 H    1.918159299728    1.112107007112    2.886470886014
