26
0 1 
 C    1.993242686504    0.846642242528    2.186531613203
 C   -1.020757313496    0.939642242528   -0.136468386797
 C    0.258242686504    1.163642242528    0.391531613203
 C   -1.945757313496    0.170642242528    0.576531613203
 C    0.618242686504    0.621642242528    1.627531613203
 C   -1.587757313496   -0.368357757472    1.813531613203
 C   -0.312757313496   -0.140357757472    2.333531613203
 H   -1.293757313496    1.362642242528   -1.093468386797
 H    0.970242686504    1.758642242528   -0.160468386797
 H   -2.929757313496   -0.011357757472    0.166531613203
 H   -2.265757313496   -0.969357757472    2.390531613203
 H    1.970242686504    0.735642242528    3.272531613203
 H    2.277242686504    1.873642242528    1.963531613203
 H   -0.057757313496   -0.540357757472    3.301531613203
 H    2.764022686504    0.187310242528    1.760877693203
 C    0.851242686504   -1.182357757472   -2.266468386797
 C    1.248242686504   -0.040357757472   -3.203468386797
 C   -0.547757313496   -1.732357757472   -2.493468386797
 H    1.565242686504   -1.996357757472   -2.392468386797
 H    0.928242686504   -0.844357757472   -1.233468386797
 H    0.582242686504    0.805642242528   -3.017468386797
 H   -1.271757313496   -0.924357757472   -2.392468386797
 H   -0.623757313496   -2.158357757472   -3.493468386797
 H    1.191232686504   -0.369684757472   -4.251463386797
 H    2.264512686504    0.290671242528   -2.943425386797
 H   -0.765317313496   -2.515131757472   -1.751893386797
