27
0 1 
 C   -3.001501416074   -1.123904123533    1.402280180326
 C    0.384498583926   -0.547904123533   -0.220719819674
 C   -0.394501416074   -0.725904123533    0.945280180326
 C   -1.766501416074   -0.887904123533    0.513280180326
 C   -1.727501416074   -0.793904123533   -0.861719819674
 C    1.745498583926   -0.331904123533   -0.171719819674
 C    2.386498583926   -0.313904123533    1.056280180326
 C    0.270498583926   -0.719904123533    2.192280180326
 C    1.678498583926   -0.461904123533    2.231280180326
 N   -0.456501416074   -0.559904123533   -1.291719819674
 H   -0.174501416074   -0.515904123533   -2.268719819674
 H    2.303498583926   -0.187904123533   -1.085719819674
 H   -2.596501416074   -0.883904123533   -1.503719819674
 H    3.452498583926   -0.145904123533    1.096280180326
 H   -0.295501416074   -0.870904123533    3.096280180326
 H   -3.813501416074   -0.492904123533    1.050280180326
 H   -2.760501416074   -0.827904123533    2.424280180326
 H    2.187498583926   -0.379904123533    3.177280180326
 H   -3.363399416074   -2.162584123533    1.388740180326
 C    0.377498583926    2.850095876467   -1.742719819674
 C    0.723498583926    2.822095876467   -3.211719819674
 H   -0.493501416074    2.230095876467   -1.543719819674
 H    1.210498583926    2.449095876467   -1.165719819674
 H    0.179498583926    3.872095876467   -1.415719819674
 H    0.862498583926    1.793095876467   -3.529719819674
 H   -0.070454736074    3.324715876467   -3.783569819674
 H    1.659877583926    3.375675876467   -3.375259819674
