17
1 1 
 C    1.884334240686    0.065038264474    2.047863492575
 C    0.837334240686   -0.472961735526    1.085863492575
 O    0.670334240686    0.006038264474   -0.040136507425
 N    0.229334240686   -1.573961735526    1.452863492575
 H    2.653334240686   -0.703961735526    2.153863492575
 H    1.426334240686    0.210038264474    3.028863492575
 H   -0.417665759314   -2.013961735526    0.815863492575
 H    0.415334240686   -1.985961735526    2.356863492575
 H    2.360324240686    0.992937264474    1.697953492575
 C   -1.645665759314    1.640038264474   -2.514136507425
 N   -1.666665759314    0.336038264474   -1.742136507425
 H   -2.570665759314    0.170038264474   -1.310136507425
 H   -1.483665759314   -0.447961735526   -2.360136507425
 H   -0.940665759314    0.322038264474   -1.024136507425
 H   -2.305665759314    1.597038264474   -3.388136507425
 H   -0.626665759314    1.858038264474   -2.855136507425
 H   -1.990015759314    2.435449264474   -1.836826507425
