23
-1 1 
 C   -0.688710708432    4.480401770471    1.583536164730
 C   -0.123710708432    0.250401770471    1.067536164730
 C    0.308289291568    1.133401770471    0.085536164730
 C   -0.737710708432    0.734401770471    2.216536164730
 C    0.127289291568    2.500401770471    0.258536164730
 C   -0.916710708432    2.104401770471    2.383536164730
 C   -0.475710708432    2.999401770471    1.413536164730
 O    0.050289291568   -1.088598229529    0.901536164730
 H    0.359289291568   -1.290598229529   -0.009463835270
 H    0.780289291568    0.755401770471   -0.809463835270
 H   -1.100710708432    0.035401770471    2.946536164730
 H    0.468289291568    3.181401770471   -0.511463835270
 H   -1.397710708432    2.473401770471    3.278536164730
 H    0.073289291568    5.011401770471    1.011536164730
 H   -0.560710708432    4.758401770471    2.631536164730
 H   -1.679734708432    4.799461770471    1.228466164730
 C   -0.408710708432   -3.914598229529   -1.810463835270
 C    0.600289291568   -2.872598229529   -2.273463835270
 O    0.773289291568   -1.859598229529   -1.558463835270
 O    1.228289291568   -3.068598229529   -3.336463835270
 H   -1.380710708432   -3.448598229529   -1.648463835270
 H   -0.058710708432   -4.323598229529   -0.867463835270
 H   -0.498473108432   -4.757648229529   -2.511323835270
