17
0 1 
 C   -1.550680562591    1.446502444632    1.637559442624
 C   -0.621680562591    1.423502444632    2.855559442624
 H   -1.816680562591    0.427502444632    1.353559442624
 H   -2.460680562591    1.998502444632    1.876559442624
 H   -1.051680562591    1.935502444632    0.800559442624
 H   -0.426680562591    2.466502444632    3.116559442624
 H    0.343789437409    0.955072444632    2.613819442624
 H   -1.116280562591    0.976352444632    3.730449442624
 C    1.254319437409    0.232502444632   -1.972440557376
 C    0.558319437409   -0.759497555368   -1.061440557376
 O    0.541319437409   -0.603497555368    0.155559442624
 N   -0.094680562591   -1.746497555368   -1.653440557376
 H    0.514319437409    0.977502444632   -2.270440557376
 H    1.596319437409   -0.280497555368   -2.872440557376
 H   -0.592680562591   -2.406497555368   -1.075440557376
 H   -0.086680562591   -1.835497555368   -2.658440557376
 H    2.104479437409    0.732132444632   -1.484997557376
