26
0 1 
 C    1.877749200726    2.332804105984   -1.298816810558
 C    2.073749200726    1.028804105984   -2.100816810558
 H    2.721749200726    3.004804105984   -1.454816810558
 H    0.965749200726    2.830804105984   -1.627816810558
 H    1.795749200726    2.102804105984   -0.235816810558
 H    1.191749200726    0.401804105984   -1.950816810558
 H    2.960049200726    0.478534105984   -1.752006810558
 H    2.155229200726    1.242964105984   -3.176686810558
 C   -1.479250799274    1.338804105984    0.328183189442
 C   -1.955250799274    1.792804105984    1.713183189442
 C   -0.784250799274    0.001804105984    0.311183189442
 C    0.400749200726   -0.195195894016    1.023183189442
 C   -1.295250799274   -1.041195894016   -0.453816810558
 C    1.043749200726   -1.428195894016    0.989183189442
 C   -0.653250799274   -2.276195894016   -0.480816810558
 C    0.511749200726   -2.467195894016    0.240183189442
 H   -2.324250799274    1.333804105984   -0.362816810558
 H   -0.764250799274    2.070804105984   -0.046816810558
 H   -1.201250799274    1.535804105984    2.458183189442
 H    0.830749200726    0.614804105984    1.596183189442
 H   -2.194250799274   -0.896195894016   -1.033816810558
 H    1.968749200726   -1.565195894016    1.518183189442
 H   -1.059250799274   -3.088195894016   -1.065816810558
 H    1.010749200726   -3.426195894016    0.208183189442
 H   -2.917770799274    1.340564105984    1.994323189442
 H   -2.049580799274    2.888734105984    1.707423189442
