16
0 1 
 C    1.569220156061   -1.389802825733   -0.390204950658
 C    2.248220156061   -1.781802825733    0.924795049342
 H    2.047220156061   -1.882802825733   -1.230204950658
 H    0.511220156061   -1.646802825733   -0.376204950658
 H    1.653220156061   -0.309802825733   -0.509204950658
 H    1.632220156061   -1.443802825733    1.758795049342
 H    3.241510156061   -1.311860825733    0.975146049342
 H    2.398540156061   -2.870000825733    0.981614049342
 C   -1.422779843939    0.992197174267   -0.288204950658
 C   -2.397779843939    2.174197174267   -0.245204950658
 H   -1.693779843939    0.312197174267   -1.098204950658
 H   -0.406779843939    1.357197174267   -0.448204950658
 H   -1.458779843939    0.452197174267    0.658795049342
 H   -2.101779843939    2.840197174267    0.565795049342
 H   -3.431259843939    1.824467174267   -0.105160950658
 H   -2.354409843939    2.740867174267   -1.187011950658
