19
0 1 
 C   -1.983608050409   -1.115506745003   -0.765177428269
 C   -2.753608050409    0.067493254997   -1.345177428269
 H   -0.925608050409   -0.998506745003   -0.958177428269
 H   -2.171608050409   -1.215506745003    0.305822571731
 H   -2.311608050409   -2.028506745003   -1.263177428269
 H   -3.779608050409   -0.254506745003   -1.494177428269
 H   -2.317084450409    0.370280254997   -2.308387428269
 H   -2.756508650409    0.906499254997   -0.633797428269
 C    1.089391949591    0.141493254997    0.674822571731
 C    1.547391949591    1.399493254997   -0.033177428269
 C    2.176391949591   -0.472506745003    1.531822571731
 H    0.176391949591    0.295493254997    1.249822571731
 H    0.896391949591   -0.574506745003   -0.117177428269
 H    0.802391949591    1.649493254997   -0.790177428269
 H    2.482391949591    1.195493254997   -0.560177428269
 H    3.143391949591   -0.303506745003    1.052822571731
 H    2.173391949591   -0.000506745003    2.517822571731
 H    1.682221949591    2.269366254997    0.626472571731
 H    2.001011949591   -1.554766745003    1.621012571731
