20
0 1 
 C    3.622744523515    0.339829869885   -0.321955507734
 C    2.220744523515    0.266829869885    0.263044492266
 O    1.340744523515    1.030829869885   -0.180955507734
 O    2.006744523515   -0.537170130115    1.193044492266
 H    4.069744523515   -0.644170130115   -0.275955507734
 H    4.208744523515    1.021829869885    0.298044492266
 H    3.634224523515    0.692822869885   -1.363715507734
 C   -1.720255476485    0.442829869885   -2.056955507734
 C   -1.853255476485   -0.370170130115    0.272044492266
 N   -1.218255476485    0.276829869885   -0.689955507734
 N   -3.030255476485   -0.920170130115    0.036044492266
 N   -1.306255476485   -0.479170130115    1.466044492266
 H   -0.291255476485    0.643829869885   -0.472955507734
 H   -2.662255476485    0.991829869885   -2.043955507734
 H   -1.896255476485   -0.539170130115   -2.493955507734
 H   -3.396255476485   -0.921170130115   -0.902955507734
 H   -3.519255476485   -1.416170130115    0.763044492266
 H   -0.355255476485   -0.153170130115    1.587044492266
 H   -1.770255476485   -0.975170130115    2.208044492266
 H   -0.997375476485    0.971981869885   -2.695265507734
