28
0 1 
 C    0.036119401689   -2.849245797892   -3.125394079325
 C   -0.305880598311    0.901754202108   -0.960394079325
 C   -1.246880598311   -0.108245797892   -0.788394079325
 C    0.745119401689    0.690754202108   -1.853394079325
 C   -1.125880598311   -1.300245797892   -1.490394079325
 C    0.866119401689   -0.512245797892   -2.548394079325
 C   -0.078880598311   -1.535245797892   -2.393394079325
 O   -0.460880598311    2.077754202108   -0.264394079325
 H   -2.071880598311    0.018754202108   -0.100394079325
 H   -1.272880598311    2.061754202108    0.243605920675
 H    1.477119401689    1.473754202108   -1.995394079325
 H   -1.867880598311   -2.070245797892   -1.347394079325
 H    1.697119401689   -0.653245797892   -3.228394079325
 H    0.175119401689   -3.627245797892   -2.373394079325
 H    0.935119401689   -2.835245797892   -3.742394079325
 H   -0.825770598311   -3.116825797892   -3.754324079325
 C    0.382119401689    0.804754202108    2.728605920675
 C    0.605119401689    1.430754202108    4.109605920675
 C    1.494119401689   -0.148245797892    2.344605920675
 O   -0.837880598311    0.075754202108    2.725605920675
 H    0.338119401689    1.595754202108    1.988605920675
 H    1.586119401689    1.906754202108    4.111605920675
 H    1.535119401689   -0.991245797892    3.033605920675
 H    1.312119401689   -0.524245797892    1.337605920675
 H    2.452119401689    0.373754202108    2.356605920675
 H   -1.618880598311    0.627754202108    2.557605920675
 H    0.602869401689    0.656704202108    4.891165920675
 H   -0.167940598311    2.186454202108    4.312815920675
