25
0 1 
 C    1.963354904777    1.533661020290   -2.009217850409
 C    0.356354904777   -0.428338979710   -1.611217850409
 C    0.223354904777   -0.523338979710    0.629782149591
 C    1.135354904777    0.598661020290   -1.171217850409
 C    1.066354904777    0.564661020290    0.268782149591
 C   -0.058645095223   -0.845338979710    1.956782149591
 C    0.517354904777   -0.064338979710    2.949782149591
 C    1.634354904777    1.342661020290    1.293782149591
 C    1.353354904777    1.020661020290    2.626782149591
 N   -0.190645095223   -1.104338979710   -0.542217850409
 H   -0.803645095223   -1.909338979710   -0.632217850409
 H    0.221354904777   -0.696338979710   -2.655217850409
 H   -0.693645095223   -1.681338979710    2.204782149591
 H    1.603354904777    2.549661020290   -1.843217850409
 H    1.828354904777    1.292661020290   -3.063217850409
 H    0.331354904777   -0.292338979710    3.990782149591
 H    2.245354904777    2.198661020290    1.055782149591
 H    1.776354904777    1.625661020290    3.414782149591
 H    3.031304904777    1.491371020290   -1.749037850409
 C   -3.649645095223   -0.323338979710   -1.301217850409
 O   -2.966645095223   -1.404338979710   -1.914217850409
 H   -2.393645095223   -1.045338979710   -2.607217850409
 H   -4.065645095223    0.315661020290   -2.081217850409
 H   -2.955645095223    0.259661020290   -0.695217850409
 H   -4.468955095223   -0.716088979710   -0.681157850409
