25
0 1 
 C    2.822382617510    2.631664523947    2.523820192043
 C    0.020382617510   -0.403335476053    1.225820192043
 C    0.481382617510    0.556664523947    0.316820192043
 C    0.475382617510   -0.371335476053    2.547820192043
 C    1.407382617510    1.525664523947    0.737820192043
 C    1.380382617510    0.605664523947    2.958820192043
 C    1.870382617510    1.553664523947    2.057820192043
 O   -0.883617382490   -1.360335476053    0.831820192043
 H   -1.140617382490   -1.251335476053   -0.103179807957
 H    0.137382617510    0.547664523947   -0.707179807957
 H    0.096382617510   -1.086335476053    3.258820192043
 H    1.749382617510    2.266664523947    0.025820192043
 H    1.688382617510    0.630664523947    3.995820192043
 H    3.051382617510    2.500664523947    3.582820192043
 H    2.282382617510    3.574664523947    2.438820192043
 H    3.759342617510    2.717884523947    1.954030192043
 C   -1.572617382490    0.255664523947   -3.615179807957
 C   -1.677617382490   -1.073335476053   -2.915179807957
 O   -1.684617382490   -1.139335476053   -1.689179807957
 N   -1.778617382490   -2.142335476053   -3.677179807957
 H   -1.925617382490    0.169664523947   -4.644179807957
 H   -0.518617382490    0.532664523947   -3.638179807957
 H   -1.807617382490   -3.025335476053   -3.207179807957
 H   -1.756617382490   -2.053335476053   -4.682179807957
 H   -2.147207382490    1.034024523947   -3.091719807957
