24
1 1 
 C   -0.513971457017   -2.699111513742    0.013757877557
 C    0.237028542983   -0.756111513742    1.344757877557
 N    0.447028542983   -1.664111513742    0.406757877557
 N   -0.904971457017   -0.735111513742    2.007757877557
 N    1.161028542983    0.145888486258    1.605757877557
 H    1.390028542983   -1.708111513742    0.013757877557
 H   -1.594971457017   -1.447111513742    1.846757877557
 H   -1.063971457017   -0.044111513742    2.724757877557
 H    2.014028542983    0.151888486258    1.039757877557
 H    1.027028542983    0.837888486258    2.323757877557
 H   -1.539971457017   -2.412111513742    0.245757877557
 H   -0.280971457017   -3.615111513742    0.562757877557
 H   -0.455451457017   -2.910085513742   -1.064232122443
 C   -0.657971457017    1.733888486258   -1.468242122443
 C    0.102028542983    3.055888486258   -1.473242122443
 C    0.109028542983    0.926888486258   -2.501242122443
 H   -1.688971457017    1.889888486258   -1.787242122443
 H   -0.634971457017    1.264888486258   -0.485242122443
 H   -0.556971457017    3.870888486258   -1.172242122443
 H    0.967028542983    2.987888486258   -0.810242122443
 H   -0.444971457017    0.046888486258   -2.827242122443
 H    1.036028542983    0.645888486258   -2.020242122443
 H    0.434098542983    3.153865486258   -2.517332122443
 H    0.242908542983    1.668681486258   -3.302382122443
