19
0 1 
 C   -0.337066702137   -0.104752691733    1.218010813527
 C   -0.306066702137   -0.363752691733    2.762010813527
 C   -1.486066702137    0.876247308267    1.106010813527
 H   -0.569066702137   -1.033752691733    0.707010813527
 H    0.560933297863    0.333247308267    0.783010813527
 H   -1.025066702137   -1.137752691733    3.045010813527
 H    0.683933297863   -0.660752691733    3.093010813527
 H   -1.504066702137    1.449247308267    0.181010813527
 H   -0.599196702137    0.595707308267    3.213140813527
 H   -1.309206702137    1.532407308267    1.970980813527
 H   -2.443986702137    0.343747308267    1.199980813527
 C    0.397933297863    0.153247308267   -2.291989186473
 C    1.719933297863   -0.573752691733   -2.722989186473
 H    0.275933297863    1.088247308267   -2.841989186473
 H   -0.463066702137   -0.481752691733   -2.489989186473
 H    0.430933297863    0.379247308267   -1.235989186473
 H    1.672933297863   -0.811752691733   -3.789989186473
 H    2.597643297863    0.061487308267   -2.532989186473
 H    1.826293297863   -1.505602691733   -2.148239186473
