16
0 1 
 C    0.864616839551   -0.926109992239   -1.084419569469
 C    1.549616839551   -1.407109992239   -2.357419569469
 H    0.482616839551   -1.777109992239   -0.518419569469
 H    1.570616839551   -0.360109992239   -0.474419569469
 H    0.029616839551   -0.278109992239   -1.354419569469
 H    1.872616839551   -0.532109992239   -2.924419569469
 H    0.844186839551   -1.990939992239   -2.966929569469
 H    2.444376839551   -1.995919992239   -2.107029569469
 C   -0.839383160449    0.894890007761    1.109580430531
 C   -1.575383160449    1.428890007761    2.337580430531
 H   -0.795383160449   -0.194109992239    1.136580430531
 H   -1.365383160449    1.205890007761    0.205580430531
 H    0.174616839551    1.297890007761    1.080580430531
 H   -1.631383160449    2.516890007761    2.254580430531
 H   -1.014913160449    1.177360007761    3.250050430531
 H   -2.605243160449    1.042780007761    2.354900430531
