19
0 1 
 C   -0.017233430550    1.079556286994    1.923602184960
 C    0.085766569450    0.919556286994    3.435602184960
 H   -1.043233430550    1.294556286994    1.628602184960
 H    0.623766569450    1.898556286994    1.596602184960
 H    0.331766569450    0.165556286994    1.448602184960
 H    1.092766569450    0.572556286994    3.668602184960
 H   -0.645583430550    0.191776286994    3.816992184960
 H   -0.062833430550    1.891636286994    3.928532184960
 C    0.241766569450   -0.207443713006   -1.646397815040
 C   -1.176233430550   -0.191443713006   -2.259397815040
 C    0.875766569450   -1.614443713006   -1.560397815040
 H    0.888766569450    0.396556286994   -2.280397815040
 H    0.206766569450    0.244556286994   -0.662397815040
 H   -1.806233430550   -0.891443713006   -1.706397815040
 H   -1.114233430550   -0.538443713006   -3.292397815040
 H    0.291766569450   -2.234443713006   -0.877397815040
 H    0.858766569450   -2.072443713006   -2.551397815040
 H   -1.655173430550    0.798516286994   -2.235167815040
 H    1.915846569450   -1.548193713006   -1.208477815040
