27
0 1 
 C    1.914110542803    0.205446555280   -3.403093057084
 C   -1.335889457197    0.628446555280   -1.505093057084
 C   -0.151889457197    0.914446555280   -2.159093057084
 C   -1.814889457197   -0.669553444720   -1.461093057084
 C    0.595110542803   -0.101553444720   -2.752093057084
 C   -1.077889457197   -1.701553444720   -2.043093057084
 C    0.123110542803   -1.415553444720   -2.693093057084
 H   -1.897889457197    1.425446555280   -1.046093057084
 H    0.188110542803    1.938446555280   -2.208093057084
 H   -2.753889457197   -0.878553444720   -0.969093057084
 H   -1.436889457197   -2.717553444720   -1.977093057084
 H    1.931110542803    1.260446555280   -3.678093057084
 H    1.999110542803   -0.363553444720   -4.328093057084
 H    0.692110542803   -2.216553444720   -3.143093057084
 H    2.777900542803   -0.013373444720   -2.758123057084
 C   -0.201889457197   -1.793553444720    2.143906942916
 C   -0.588889457197    0.761446555280    1.986906942916
 C    0.077110542803   -0.340553444720    2.417906942916
 C    1.070110542803    1.428446555280    3.264906942916
 N    0.049110542803    1.855446555280    2.530906942916
 N    1.106110542803    0.105446555280    3.219906942916
 H   -1.475889457197    0.759446555280    1.364906942916
 H   -0.326889457197    2.793446555280    2.589906942916
 H   -1.148889457197   -1.845553444720    1.610906942916
 H   -0.310889457197   -2.322553444720    3.087906942916
 H    1.718110542803    2.042446555280    3.874906942916
 H    0.565460542803   -2.292443444720    1.533756942916
