23
0 1 
 C   -0.781224627797    0.093939612599    3.199054610333
 C    0.421775372203    0.800939612599    3.887054610333
 H   -1.558224627797    0.819939612599    2.958054610333
 H   -0.447224627797   -0.385060387401    2.281054610333
 H   -1.193224627797   -0.663060387401    3.868054610333
 H    1.168775372203    0.034939612599    4.106054610333
 H    0.139435372203    1.280315612599    4.835994610333
 H    0.880945372203    1.507026612599    3.179524610333
 C    2.258775372203   -0.904060387401   -0.341945389667
 C    0.265775372203    0.655939612599   -0.238945389667
 C    0.910775372203   -0.443060387401   -0.829945389667
 C   -0.996224627797    1.089939612599   -0.697945389667
 C    0.285775372203   -1.100060387401   -1.894945389667
 C   -1.615224627797    0.433939612599   -1.784945389667
 C   -0.981224627797   -0.655060387401   -2.407945389667
 H    0.744775372203    1.234939612599    0.500054610333
 H   -1.492224627797    1.900939612599   -0.191945389667
 H    2.140775372203   -1.867060387401    0.156054610333
 H    2.643775372203   -0.195060387401    0.388054610333
 H    0.756775372203   -1.958060387401   -2.350945389667
 H   -2.575224627797    0.791939612599   -2.114945389667
 H   -1.451224627797   -1.165060387401   -3.237945389667
 H    2.992825372203   -1.008722387401   -1.154485389667
