29
0 1 
 C    2.874913403660    0.068984841226    2.823569208039
 C    0.038913403660   -0.795015158774    0.437569208039
 C    0.622913403660   -1.771015158774   -0.345430791961
 C    0.759913403660   -0.199015158774    1.467569208039
 C    2.084913403660   -0.573015158774    1.710569208039
 C    1.932913403660   -2.151015158774   -0.111430791961
 C    2.660913403660   -1.565015158774    0.925569208039
 H   -0.992086596340   -0.529015158774    0.291569208039
 H    0.049913403660   -2.250015158774   -1.126430791961
 H    0.291913403660    0.563984841226    2.073569208039
 H    2.381913403660   -2.932015158774   -0.696430791961
 H    2.686913403660    1.138984841226    2.804569208039
 H    3.934913403660   -0.081015158774    2.624569208039
 H    3.677913403660   -1.883015158774    1.108569208039
 H    2.635303403660   -0.330845158774    3.819919208039
 C   -2.501086596340    1.229984841226   -1.435430791961
 C   -3.458086596340    2.157984841226   -0.675430791961
 C   -3.032086596340    0.959984841226   -2.841430791961
 C   -1.096086596340    1.823984841226   -1.483430791961
 H   -2.469086596340    0.273984841226   -0.922430791961
 H   -3.463086596340    3.111984841226   -1.203430791961
 H   -3.199086596340    1.898984841226   -3.368430791961
 H   -2.287086596340    0.381984841226   -3.386430791961
 H   -3.948086596340    0.368984841226   -2.814430791961
 H   -0.697086596340    1.968984841226   -0.479430791961
 H   -0.436086596340    1.143984841226   -2.022430791961
 H   -1.119086596340    2.772984841226   -2.007430791961
 H   -3.137676596340    2.301644841226    0.367019208039
 H   -4.484156596340    1.761664841226   -0.685610791961
