23
0 1 
 C    1.739365325591    1.581133021539    0.543039480917
 C    3.036365325591    2.372133021539    0.315039480917
 C    1.031365325591    1.936133021539    1.858039480917
 H    1.055365325591    1.753133021539   -0.288960519083
 H    1.956365325591    0.514133021539    0.577039480917
 H    3.620365325591    2.357133021539    1.237039480917
 H    0.696365325591    2.971133021539    1.852039480917
 H    0.161365325591    1.290133021539    1.981039480917
 H    1.711365325591    1.777133021539    2.695039480917
 H    3.634141325591    1.898207021539   -0.477460519083
 H    2.822875325591    3.422333021539    0.067049480917
 C   -3.016634674409   -0.441866978461    0.232039480917
 C    0.097365325591   -1.008866978461   -1.502960519083
 C   -1.669634674409   -0.862866978461   -0.224960519083
 C   -0.821634674409   -1.747866978461    0.340039480917
 N   -1.091634674409   -0.426866978461   -1.388960519083
 N    0.281365325591   -1.827866978461   -0.475960519083
 H    0.803365325591   -0.846866978461   -2.308960519083
 H    1.129365325591   -2.368866978461   -0.322960519083
 H   -0.995634674409   -2.288866978461    1.258039480917
 H   -3.459634674409    0.214133021539   -0.516960519083
 H   -2.890634674409    0.142133021539    1.144039480917
 H   -3.708608674409   -1.271802978461    0.437899480917
