20
0 1 
 C    0.802124043414    1.583663661608    2.882770887401
 C   -0.458875956586    1.002663661608    3.519770887401
 H    0.765124043414    1.501663661608    1.795770887401
 H    0.898124043414    2.638663661608    3.149770887401
 H    1.682124043414    1.053663661608    3.250770887401
 H   -0.406875956586    1.166663661608    4.597770887401
 H   -0.528925956586   -0.075956338392    3.315650887401
 H   -1.353795956586    1.525483661608    3.151280887401
 C   -1.803875956586    0.559663661608   -2.053229112599
 C    0.841124043414   -0.810336338392    0.013770887401
 C   -0.635875956586   -0.192336338392   -1.492229112599
 C    0.297124043414   -0.958336338392   -2.113229112599
 N   -0.281875956586   -0.118336338392   -0.159229112599
 N    1.211124043414   -1.329336338392   -1.151229112599
 H    1.395124043414   -0.907336338392    0.938770887401
 H    2.047124043414   -1.883336338392   -1.302229112599
 H    0.323124043414   -1.196336338392   -3.166229112599
 H   -2.652875956586    0.364663661608   -1.402229112599
 H   -2.047875956586    0.173663661608   -3.044229112599
 H   -1.621905956586    1.643593661608   -2.097819112599
