27
0 1 
 C   -0.788560671999   -1.589143140316    2.121539654869
 C   -0.072560671999   -2.930143140316    2.089539654869
 H   -1.531560671999   -1.548143140316    2.896539654869
 H   -0.063560671999   -0.785143140316    2.250539654869
 H   -1.318560671999   -1.460143140316    1.188539654869
 H    0.670439328001   -2.905143140316    1.291539654869
 H   -0.751670671999   -3.778845140316    1.920659654869
 H    0.460959328001   -3.071502140316    3.041049654869
 C    2.645439328001    1.548856859684    0.520539654869
 C   -0.301560671999   -0.226143140316   -0.822460345131
 C    0.244439328001    0.939856859684   -0.200460345131
 C    1.640439328001    0.659856859684   -0.071460345131
 C    1.844439328001   -0.558143140316   -0.619460345131
 C   -1.592560671999   -0.520143140316   -1.179460345131
 C   -2.210560671999    0.604856859684   -1.055460345131
 C   -0.609560671999    1.993856859684    0.113539654869
 C   -1.832560671999    1.861856859684   -0.376460345131
 N    0.711439328001   -1.088143140316   -1.039460345131
 H    0.643439328001   -1.959143140316   -1.547460345131
 H   -1.904560671999   -1.369143140316   -1.754460345131
 H    2.788439328001   -0.891143140316   -0.969460345131
 H   -2.625560671999    0.615856859684   -2.033460345131
 H   -0.245560671999    2.924856859684    0.523539654869
 H    3.058439328001    1.082856859684    1.416539654869
 H    2.137439328001    2.465856859684    0.821539654869
 H   -2.349560671999    2.753856859684   -0.600460345131
 H    3.448199328001    1.785351859684   -0.193350345131
