26
0 1 
 C   -1.480280320524   -1.077037121190   -2.456801292918
 C   -1.121280320524   -1.489037121190   -3.885801292918
 C   -2.898280320524   -1.508037121190   -2.061801292918
 H   -0.770280320524   -1.512037121190   -1.757801292918
 H   -1.405280320524    0.006962878810   -2.367801292918
 H   -1.933280320524   -1.166037121190   -4.540801292918
 H   -3.623280320524   -0.988037121190   -2.686801292918
 H   -3.024280320524   -2.574037121190   -2.235801292918
 H   -1.023300320524   -2.582610121190   -3.952877292918
 H   -0.213790320524   -0.969031121190   -4.226470292918
 H   -3.119000320524   -1.277881121190   -1.009037292918
 C   -0.772280320524   -0.086037121190    2.999198707082
 C    0.423719679476   -0.338037121190    0.792198707082
 C    0.235719679476    0.380962878810    1.974198707082
 C    1.369719679476    0.067962878810   -0.143801292918
 C    1.020719679476    1.508962878810    2.211198707082
 C    2.136719679476    1.205962878810    0.093198707082
 C    1.961719679476    1.929962878810    1.274198707082
 H   -0.171280320524   -1.216037121190    0.602198707082
 H    1.501719679476   -0.493037121190   -1.056801292918
 H   -0.269280320524   -0.748037121190    3.696198707082
 H   -1.543280320524   -0.678037121190    2.503198707082
 H    0.951719679476    2.069962878810    3.127198707082
 H    2.874719679476    1.521962878810   -0.632801292918
 H    2.576719679476    2.792962878810    1.479198707082
 H   -1.241270320524    0.720917878810    3.581318707082
