26
-1 1 
 C    2.071746311962   -3.533971443846   -0.017360310757
 C    3.038746311962   -2.472971443846    0.489639689243
 O    4.178746311962   -2.788971443846    0.850639689243
 O    2.673746311962   -1.290971443846    0.508639689243
 H    2.224746311962   -3.637971443846   -1.092360310757
 H    1.048746311962   -3.193971443846    0.139639689243
 H    2.226256311962   -4.518814143846    0.447619689243
 C    1.200746311962    2.166028556154    0.797639689243
 C    0.399746311962    0.059028556154   -0.342360310757
 C    0.195746311962    1.277028556154    0.205639689243
 C   -1.746253688038    0.391028556154   -0.545360310757
 C   -1.200253688038    1.557028556154    0.076639689243
 C   -3.037253688038    0.097028556154   -0.902360310757
 C   -2.054253688038    2.611028556154    0.390639689243
 C   -3.655253688038    1.222028556154   -0.778360310757
 C   -3.277253688038    2.479028556154   -0.099360310757
 N   -0.733253688038   -0.470971443846   -0.762360310757
 H    1.343746311962   -0.273971443846   -0.692360310757
 H   -0.801253688038   -1.341971443846   -1.270360310757
 H    1.613746311962    1.700028556154    1.693639689243
 H    0.692746311962    3.083028556154    1.098639689243
 H   -3.349253688038   -0.751971443846   -1.477360310757
 H   -1.690253688038    3.542028556154    0.800639689243
 H   -4.070253688038    1.233028556154   -1.756360310757
 H   -3.794253688038    3.371028556154   -0.323360310757
 H    2.003506311962    2.402523556154    0.083749689243
