15
0 1 
 C   -2.127115162959    1.925516317454   -0.840574760758
 O   -1.428115162959    0.831516317454   -1.400574760758
 H   -0.830115162959    1.182516317454   -2.075574760758
 H   -2.351115162959    2.636516317454   -1.633574760758
 H   -3.076445162959    1.604086317454   -0.387293760758
 H   -1.493185162959    2.428716317454   -0.095638760758
 C    1.809884837041   -0.252483682546   -0.424574760758
 C    0.866884837041   -0.748483682546    0.636425239242
 O   -0.354115162959   -0.641483682546    0.530425239242
 N    1.441884837041   -1.331483682546    1.679425239242
 H    2.833884837041   -0.394483682546   -0.092574760758
 H    1.644884837041    0.818516317454   -0.554574760758
 H    0.854884837041   -1.709483682546    2.417425239242
 H    2.452884837041   -1.320483682546    1.768425239242
 H    1.670914837041   -0.770201682546   -1.385124760758
