30
0 1 
 C    2.688382076983   -0.277601702072    0.790017505207
 C    3.861382076983    0.705398297928    0.924017505207
 C    2.516382076983   -1.328601702072    1.898017505207
 H    1.789382076983    0.335398297928    0.742017505207
 H    2.823382076983   -0.790601702072   -0.161982494793
 H    3.764382076983    1.243398297928    1.868017505207
 H    3.402382076983   -1.963601702072    1.921017505207
 H    3.815424076983    1.402298297928    0.074177505207
 H    4.835422076983    0.199698297928    0.849917505207
 H    2.395125076983   -0.845701702072    2.878907505207
 H    1.630695076983   -1.945501702072    1.685987505207
 C   -2.376617923017   -1.249601702072    1.917017505207
 C   -0.588617923017    0.937398297928   -0.631982494793
 C   -1.264617923017   -0.276601702072   -0.294982494793
 C   -1.747617923017   -0.154601702072    1.071017505207
 C   -1.387617923017    1.087398297928    1.486017505207
 C    0.028382076983    1.160398297928   -1.882982494793
 C   -0.036617923017    0.133398297928   -2.820982494793
 C   -1.308617923017   -1.295601702072   -1.263982494793
 C   -0.701617923017   -1.073601702072   -2.512982494793
 N   -0.693617923017    1.741398297928    0.484017505207
 H   -0.313617923017    2.677398297928    0.561017505207
 H    0.528382076983    2.101398297928   -2.085982494793
 H   -1.648617923017    1.414398297928    2.488017505207
 H    0.423382076983    0.256398297928   -3.788982494793
 H   -1.781617923017   -2.252601702072   -1.064982494793
 H   -1.801617923017   -1.301601702072    2.848017505207
 H   -2.230617923017   -2.181601702072    1.372017505207
 H   -0.750617923017   -1.860601702072   -3.253982494793
 H   -3.464473923017   -1.249601702072    2.080017505207
