16
0 1 
 C    0.527111861485   -1.524063622811    0.621912333555
 C    0.817111861485   -3.019063622811    0.730912333555
 H    0.696111861485   -1.039063622811    1.584912333555
 H    1.193111861485   -1.078063622811   -0.115087666445
 H   -0.501888138515   -1.351063622811    0.306912333555
 H    0.600111861485   -3.500063622811   -0.223087666445
 H    0.211461861485   -3.472943622811    1.529142333555
 H    1.884171861485   -3.145593622811    0.966232333555
 C   -0.619888138515    1.671936377189   -0.208087666445
 C   -0.723888138515    2.872936377189   -1.141087666445
 H    0.188111861485    1.817936377189    0.502912333555
 H   -1.555888138515    1.520936377189    0.326912333555
 H   -0.403888138515    0.782936377189   -0.799087666445
 H   -1.486888138515    2.654936377189   -1.890087666445
 H    0.240141861485    3.031596377189   -1.646527666445
 H   -1.069998138515    3.757666377189   -0.586597666445
