37
0 1 
 C   -2.950053100149    0.293759420499   -1.049018417366
 C   -4.285053100149    0.096759420499   -1.758018417366
 C   -2.805053100149   -0.523240579501    0.212981582634
 C   -2.743053100149   -1.907240579501    0.183981582634
 C   -2.745053100149    0.102759420499    1.453981582634
 C   -2.639053100149   -2.639240579501    1.370981582634
 C   -2.649053100149   -0.631240579501    2.636981582634
 C   -2.611053100149   -1.999240579501    2.603981582634
 H   -2.145053100149    0.041759420499   -1.741018417366
 H   -2.836053100149    1.348759420499   -0.791018417366
 H   -5.046053100149   -0.088240579501   -1.008018417366
 H   -2.802053100149   -2.437240579501   -0.748018417366
 H   -2.771053100149    1.180759420499    1.510981582634
 H   -2.585053100149   -3.711240579501    1.336981582634
 H   -2.602053100149   -0.121240579501    3.585981582634
 H   -2.516053100149   -2.569240579501    3.515981582634
 H   -4.233073100149   -0.764310579501   -2.440549417366
 H   -4.581843100149    1.013989420499   -2.287745417366
 C    5.094946899851    1.781759420499   -1.072018417366
 C    1.464946899851    0.923759420499   -0.675018417366
 C    2.834946899851    0.623759420499   -0.467018417366
 C    3.605946899851    1.643759420499   -1.110018417366
 C    2.712946899851    2.487759420499   -1.671018417366
 C    0.447946899851    0.131759420499   -0.176018417366
 C    0.795946899851   -1.014240579501    0.518981582634
 C    2.142946899851   -1.343240579501    0.729981582634
 C    3.167946899851   -0.533240579501    0.241981582634
 N    1.434946899851    2.070759420499   -1.418018417366
 H   -0.564053100149    0.435759420499   -0.302018417366
 H    0.019946899851   -1.647240579501    0.926981582634
 H    0.604946899851    2.579759420499   -1.697018417366
 H    2.383946899851   -2.239240579501    1.285981582634
 H    2.980946899851    3.395759420499   -2.201018417366
 H    4.202946899851   -0.799240579501    0.400981582634
 H    5.418946899851    2.536759420499   -1.790018417366
 H    5.550946899851    0.824759420499   -1.328018417366
 H    5.380966899851    2.074989420499   -0.051131417366
