17
0 1 
 C    1.228851433412   -0.296981956552   -1.831417745037
 C    1.602851433412    0.123018043448   -3.247417745037
 H    0.184851433412   -0.599981956552   -1.790417745037
 H    1.849851433412   -1.136981956552   -1.522417745037
 H    1.396851433412    0.530018043448   -1.144417745037
 H    2.652851433412    0.391018043448   -3.205417745037
 H    1.010941433412    0.990688043448   -3.574210745037
 H    1.496071433412   -0.728351956552   -3.935726745037
 C   -0.514148566588    0.270018043448    2.713582254963
 C   -0.713148566588   -0.016981956552    1.234582254963
 O   -0.645148566588   -1.163981956552    0.793582254963
 N   -0.993148566588    1.023018043448    0.464582254963
 H   -1.307148566588   -0.237981956552    3.263582254963
 H   -0.649148566588    1.334018043448    2.903582254963
 H   -1.139148566588    0.880018043448   -0.528417745037
 H   -1.027148566588    1.952018043448    0.855582254963
 H    0.465921433412   -0.056911956552    3.091190254963
