16
0 1 
 C   -1.531167479329    0.720610120191   -0.922378836914
 C   -2.695167479329    0.771610120191    0.057621163086
 H   -1.847167479329    1.074610120191   -1.905378836914
 H   -0.718167479329    1.355610120191   -0.567378836914
 H   -1.140167479329   -0.292389879809   -1.006378836914
 H   -2.325167479329    0.417610120191    1.009621163086
 H   -3.463087479329    0.072978120191   -0.305978836914
 H   -3.091217479329    1.789405120191    0.188931163086
 C    1.603832520671   -1.076389879809   -0.045378836914
 C    2.619832520671   -0.414389879809    0.902621163086
 H    1.790832520671   -2.144389879809   -0.139378836914
 H    0.604832520671   -0.956389879809    0.376621163086
 H    1.626832520671   -0.608389879809   -1.030378836914
 H    2.472832520671   -0.825389879809    1.900621163086
 H    3.668152520671   -0.571850879809    0.608981163086
 H    2.453282520671    0.671435120191    0.959581163086
