22
0 1 
 C   -0.825088846186    1.465335268468   -0.754320770884
 C   -1.470088846186    1.216335268468   -2.085320770884
 C   -0.116088846186    2.792335268468   -0.920320770884
 H   -0.084088846186    0.699335268468   -0.580320770884
 H   -1.551088846186    1.479335268468    0.053679229116
 H   -1.478088846186    0.148335268468   -2.311320770884
 H   -2.485088846186    1.611335268468   -2.063320770884
 H    0.711911153814    2.902335268468   -0.218320770884
 H   -0.832088846186    3.601335268468   -0.774320770884
 H   -0.854788846186    1.775356268468   -2.805670770884
 H    0.220131153814    2.790901268468   -1.967680770884
 C    0.470911153814   -1.494664731532    0.962679229116
 C    0.424911153814   -3.032664731532    0.869679229116
 C    1.486911153814   -0.951664731532    1.957679229116
 H    0.736911153814   -1.133664731532   -0.025320770884
 H   -0.512088846186   -1.095664731532    1.220679229116
 H    0.053911153814   -3.433664731532    1.814679229116
 H    2.462911153814   -1.382664731532    1.741679229116
 H    1.418101153814   -3.445103731532    0.638439229116
 H   -0.283728846186   -3.338124731532    0.085759229116
 H    1.608491153814    0.136867868468    1.856119229116
 H    1.208421153814   -1.256853731532    2.977139229116
