33
0 1 
 C   -1.864328625787   -2.741275035323   -1.165959765695
 C   -1.729328625787   -4.290275035323   -1.118959765695
 C   -1.528328625787   -2.276275035323   -2.590959765695
 C   -3.275328625787   -2.251275035323   -0.793959765695
 H   -1.161328625787   -2.294275035323   -0.464959765695
 H   -2.425328625787   -4.707275035323   -1.846959765695
 H   -2.191328625787   -2.757275035323   -3.312959765695
 H   -1.661328625787   -1.195275035323   -2.661959765695
 H   -0.492328625787   -2.496275035323   -2.846959765695
 H   -3.504328625787   -2.514275035323    0.240040234305
 H   -3.324328625787   -1.166275035323   -0.888959765695
 H   -4.016328625787   -2.702275035323   -1.454959765695
 H   -1.949488625787   -4.658465035323   -0.106059765695
 H   -0.707408625787   -4.599313035323   -1.383849765695
 C    1.328671374213   -0.874275035323   -0.414959765695
 C    2.732671374213   -0.991275035323   -0.996959765695
 C    1.056671374213    0.472724964677    0.246040234305
 C    0.833671374213    1.633724964677   -0.506959765695
 C    1.009671374213    0.526724964677    1.633040234305
 C    0.548671374213    2.835724964677    0.136040234305
 C    0.739671374213    1.717724964677    2.278040234305
 C    0.503671374213    2.860724964677    1.527040234305
 O    0.198671374213    3.997724964677    2.202040234305
 H    0.616671374213   -0.993275035323   -1.228959765695
 H    1.164671374213   -1.681275035323    0.301040234305
 H    2.836671374213   -0.188275035323   -1.729959765695
 H    0.857671374213    1.591724964677   -1.589959765695
 H    1.196671374213   -0.368275035323    2.210040234305
 H    0.354671374213    3.733724964677   -0.432959765695
 H    0.702671374213    1.767724964677    3.356040234305
 H   -0.021328625787    4.776724964677    1.665040234305
 H    2.860711374213   -1.953475035323   -1.514429765695
 H    3.471881374213   -0.828205035323   -0.198849765695
