23
0 1 
 C    1.939688240630   -2.362474252880    0.779276152008
 C    3.001688240630   -1.913474252880    1.779276152008
 H    1.975688240630   -3.442474252880    0.647276152008
 H    0.951688240630   -2.078474252880    1.141276152008
 H    2.104688240630   -1.870474252880   -0.177723847992
 H    2.957688240630   -0.826474252880    1.851276152008
 H    4.002391140630   -2.208814252880    1.430896152008
 H    2.785643240630   -2.323964252880    2.776686152008
 C   -0.654311759370    1.470525747120   -2.731723847992
 C   -0.919311759370    0.111525747120    1.335276152008
 C    0.166688240630    0.872525747120    0.925276152008
 C   -1.920311759370   -0.210474252880    0.428276152008
 C    0.250688240630    1.310525747120   -0.391723847992
 C   -1.833311759370    0.228525747120   -0.888723847992
 C   -0.748311759370    0.989525747120   -1.308723847992
 H   -0.984311759370   -0.229474252880    2.360276152008
 H    0.949688240630    1.116525747120    1.626276152008
 H   -2.771311759370   -0.794474252880    0.750276152008
 H    1.096688240630    1.908525747120   -0.700723847992
 H   -2.620311759370   -0.025474252880   -1.583723847992
 H   -0.401311759370    2.531525747120   -2.700723847992
 H   -1.624311759370    1.381525747120   -3.223723847992
 H    0.112279240630    0.947495747120   -3.322293847992
