15
0 1 
 C    1.056496726599   -1.746316045507   -2.621459807533
 N    0.327496726599   -1.946316045507   -1.331459807533
 H   -0.568503273401   -2.418316045507   -1.440459807533
 H    0.891496726599   -2.480316045507   -0.679459807533
 H    0.162496726599   -1.039316045507   -0.878459807533
 H    1.495496726599   -2.690316045507   -2.961459807533
 H    1.879496726599   -1.039316045507   -2.470459807533
 H    0.403676726599   -1.364846045507   -3.420395807533
 C   -0.389503273401    2.399683954493    1.388540192467
 C   -0.366503273401    0.926683954493    1.032540192467
 O    0.248496726599    0.576683954493    0.000540192467
 O   -0.959503273401    0.114683954493    1.782540192467
 H   -0.307503273401    3.015683954493    0.490540192467
 H    0.493496726599    2.594683954493    1.998540192467
 H   -1.294203273401    2.678937954493    1.948487192467
