16
0 1 
 C    0.592286621763   -0.873986636516   -1.590595305328
 C    1.215286621763    0.407013363484   -2.113595305328
 H    1.091286621763   -1.169986636516   -0.668595305328
 H   -0.474713378237   -0.737986636516   -1.423595305328
 H    0.726286621763   -1.665986636516   -2.329595305328
 H    0.818286621763    0.586013363484   -3.110595305328
 H    2.307886621763    0.296093363484   -2.176256305328
 H    0.934486621763    1.256643363484   -1.473841305328
 C   -0.313713378237   -0.257986636516    1.863404694672
 C   -1.495713378237    0.724013363484    1.847404694672
 H   -0.291713378237   -0.833986636516    0.949404694672
 H    0.625286621763    0.286013363484    1.960404694672
 H   -0.418713378237   -0.955986636516    2.690404694672
 H   -1.361713378237    1.377013363484    0.991404694672
 H   -2.470393378237    0.221273363484    1.762182694672
 H   -1.464203378237    1.352153363484    2.749868694672
