19
-1 1 
 C    3.772241125619    0.467488249946   -1.499436452370
 C    0.204241125619    0.061488249946   -2.021436452370
 C    1.513241125619    0.167488249946   -0.256436452370
 C    2.290241125619    0.276488249946   -1.364436452370
 N    0.216241125619    0.034488249946   -0.695436452370
 N    1.450241125619    0.207488249946   -2.459436452370
 H   -0.606758874381   -0.105511750054   -0.106436452370
 H   -0.677758874381   -0.035511750054   -2.642436452370
 H    1.845241125619    0.183488249946    0.769563547630
 H    4.176241125619   -0.385511750054   -2.045436452370
 H    4.219241125619    0.472488249946   -0.506436452370
 H    4.031551125619    1.394528249946   -2.031746452370
 C   -3.294758874381    0.422488249946    2.522563547630
 C   -2.135758874381   -0.318511750054    1.869563547630
 O   -2.106758874381   -0.412511750054    0.623563547630
 O   -1.257758874381   -0.817511750054    2.603563547630
 H   -2.933758874381    0.909488249946    3.431563547630
 H   -4.065758874381   -0.291511750054    2.810563547630
 H   -3.720048874381    1.194498249946    1.864443547630
