30
0 1 
 C    1.080333976451    0.739204832343    2.527018039103
 C    2.015333976451   -0.105795167657    0.351018039103
 C    2.181333976451    0.641204832343    1.511018039103
 C    3.041333976451   -0.190795167657   -0.587981960897
 C    3.390333976451    1.295204832343    1.732018039103
 C    4.252333976451    0.466204832343   -0.361981960897
 C    4.424333976451    1.206204832343    0.804018039103
 H    1.085333976451   -0.626795167657    0.172018039103
 H    2.900333976451   -0.759795167657   -1.495981960897
 H    0.118333976451    0.732204832343    2.014018039103
 H    1.157333976451    1.700204832343    3.037018039103
 H    3.536333976451    1.874204832343    2.634018039103
 H    5.051333976451    0.407204832343   -1.088981960897
 H    5.361333976451    1.714204832343    0.989018039103
 H    1.098933976451   -0.061405167657    3.281128039103
 C   -5.163666023549   -0.948795167657   -0.047981960897
 C   -1.157666023549   -0.318795167657   -1.522981960897
 C   -1.710666023549    0.590204832343   -0.645981960897
 C   -1.884666023549   -1.415795167657   -1.905981960897
 C   -3.018666023549    0.401204832343   -0.168981960897
 C   -3.176666023549   -1.615795167657   -1.440981960897
 C   -3.760666023549   -0.711795167657   -0.564981960897
 H   -0.151666023549   -0.178795167657   -1.894981960897
 H   -1.140666023549    1.454204832343   -0.329981960897
 H   -1.426666023549   -2.144795167657   -2.552981960897
 H   -3.444666023549    1.117204832343    0.520018039103
 H   -3.719666023549   -2.497795167657   -1.750981960897
 H   -5.212666023549   -0.646795167657    0.999018039103
 H   -5.361666023549   -2.021795167657   -0.071981960897
 H   -5.955951023549   -0.440905167657   -0.617481960897
