16
0 1 
 C    0.081448063590    0.031365746573    2.052751456190
 C    0.689448063590   -1.116634253427    2.849751456190
 H   -0.925551936410    0.250365746573    2.409751456190
 H    0.699448063590    0.923365746573    2.172751456190
 H    0.051448063590   -0.209634253427    0.991751456190
 H    1.677448063590   -1.325634253427    2.438751456190
 H    0.083168063590   -2.032856253427    2.795351456190
 H    0.808698063590   -0.812049253427    3.899991456190
 C   -0.526551936410    0.549365746573   -1.699248543810
 C   -0.243551936410    0.534365746573   -3.204248543810
 H    0.316448063590    0.992365746573   -1.166248543810
 H   -1.419551936410    1.145365746573   -1.501248543810
 H   -0.700551936410   -0.463634253427   -1.339248543810
 H   -1.105551936410    0.080365746573   -3.685248543810
 H    0.639188063590   -0.087856253427   -3.413091543810
 H   -0.134071936410    1.558136746573   -3.591425543810
