15
0 1 
 C   -1.841734872233    0.200053130397   -2.361181152844
 N   -0.938734872233   -0.936946869603   -2.029181152844
 H   -1.449734872233   -1.684946869603   -1.576181152844
 H   -0.497734872233   -1.326946869603   -2.853181152844
 H   -0.205734872233   -0.659946869603   -1.369181152844
 H   -2.715734872233   -0.166946869603   -2.911181152844
 H   -1.317734872233    0.913053130397   -3.004181152844
 H   -2.181874872233    0.734253130397   -1.461771152844
 C    1.748265127767    1.226053130397    1.424818847156
 C    0.687265127767    0.150053130397    1.181818847156
 O    0.724265127767   -0.468946869603    0.087818847156
 O   -0.200734872233   -0.035946869603    2.054818847156
 H    2.459265127767    1.224053130397    0.596818847156
 H    2.301265127767    1.017053130397    2.342818847156
 H    1.272105127767    2.214613130397    1.502368847156
