33
0 1 
 C    1.978698555411   -1.711938844555   -1.761225795772
 C   -0.498301444589   -1.742938844555   -1.249225795772
 C    0.530698555411   -1.670938844555   -2.188225795772
 C   -1.852301444589   -1.685938844555   -1.651225795772
 C   -2.175301444589   -1.603938844555   -2.960225795772
 C    0.175698555411   -1.589938844555   -3.521225795772
 C   -1.155301444589   -1.539938844555   -3.900225795772
 H   -0.261301444589   -1.841938844555   -0.200225795772
 H   -2.636301444589   -1.734938844555   -0.906225795772
 H    2.136698555411   -0.953938844555   -0.994225795772
 H    2.591698555411   -1.447938844555   -2.618225795772
 H   -3.210301444589   -1.578938844555   -3.272225795772
 H    0.942698555411   -1.548938844555   -4.282225795772
 H   -1.412301444589   -1.471938844555   -4.946225795772
 H    2.318058555411   -2.686108844555   -1.379355795772
 C    0.567698555411    0.144061155445    1.631774204228
 C    0.834698555411   -0.906938844555    2.676774204228
 C    1.098698555411    1.263061155445    3.709774204228
 C   -0.479301444589    2.641061155445    0.495774204228
 C    0.002698555411    2.531061155445    1.948774204228
 O   -0.161301444589    3.483061155445    2.718774204228
 N    0.587698555411    1.410061155445    2.351774204228
 H    1.346698555411    0.132061155445    0.873774204228
 H   -0.407301444589   -0.045938844555    1.182774204228
 H    1.384698555411   -1.753938844555    2.272774204228
 H   -0.113301444589   -1.239938844555    3.101774204228
 H    0.280698555411    1.384061155445    4.419774204228
 H   -0.505301444589    1.664061155445    0.022774204228
 H    1.405898555411   -0.363048844555    3.443533204228
 H    1.467518555411    0.226741155445    3.714113204228
 H    1.919628555411    1.967741155445    3.908547204228
 H   -1.494191444589    3.065321155445    0.494264204228
 H    0.209168555411    3.288941155445   -0.066595795772
