24
0 1 
 C   -1.026615957730    1.544175234254    2.244903401971
 C   -1.685615957730    2.041175234254    3.544903401971
 O    0.124384042270    2.303175234254    1.877903401971
 H   -0.707615957730    0.512175234254    2.376903401971
 H   -1.754615957730    1.563175234254    1.433903401971
 H   -2.234615957730    1.194175234254    3.961903401971
 H   -0.157615957730    3.224175234254    1.715903401971
 H   -2.394235957730    2.855645234254    3.333963401971
 H   -0.920285957730    2.336475234254    4.277743401971
 C    1.698384042270    0.905175234254   -2.111096598029
 C   -0.874615957730   -1.146824765746   -0.224096598029
 C   -0.151615957730   -0.061824765746   -0.721096598029
 C   -0.541615957730   -2.441824765746   -0.617096598029
 C    0.902384042270   -0.259824765746   -1.607096598029
 C    0.512384042270   -2.647824765746   -1.501096598029
 C    1.235384042270   -1.555824765746   -1.993096598029
 H   -1.700615957730   -0.981824765746    0.452903401971
 H   -0.416615957730    0.941175234254   -0.421096598029
 H   -1.104615957730   -3.283824765746   -0.243096598029
 H    0.769384042270   -3.649824765746   -1.818096598029
 H    2.664384042270    0.548175234254   -2.466096598029
 H    1.904384042270    1.571175234254   -1.272096598029
 H    2.048384042270   -1.725824765746   -2.685096598029
 H    1.215134042270    1.485365234254   -2.911005598029
