30
0 1 
 C    2.220244594471   -3.238571875485    1.599953286524
 C    0.058244594471   -0.159571875485    0.976953286524
 C    0.817244594471   -1.315571875485    0.761953286524
 C   -0.158755405529    0.305428124515    2.273953286524
 C    1.365244594471   -2.017571875485    1.838953286524
 C    0.381244594471   -0.392571875485    3.359953286524
 C    1.141244594471   -1.552571875485    3.137953286524
 H   -0.380755405529    0.363428124515    0.149953286524
 H    0.984244594471   -1.651571875485   -0.252046713476
 H   -0.736755405529    1.204428124515    2.438953286524
 H    0.231244594471   -0.007571875485    4.354953286524
 H    2.512244594471   -3.666571875485    2.557953286524
 H    3.130244594471   -2.917571875485    1.090953286524
 H    1.568244594471   -2.077571875485    3.979953286524
 H    1.735554594471   -4.020264875485    0.996604286524
 C    1.050244594471    2.768428124515   -1.911046713476
 C   -2.308755405529    0.068428124515   -2.061046713476
 C   -1.055755405529   -0.342571875485   -2.521046713476
 C   -2.468755405529    1.352428124515   -1.541046713476
 C    0.030244594471    0.532428124515   -2.458046713476
 C   -1.376755405529    2.225428124515   -1.482046713476
 C   -0.121755405529    1.822428124515   -1.943046713476
 H   -3.152755405529   -0.607571875485   -2.107046713476
 H   -0.922755405529   -1.335571875485   -2.921046713476
 H   -3.437755405529    1.660428124515   -1.180046713476
 H    0.993244594471    0.197428124515   -2.801046713476
 H   -1.502755405529    3.209428124515   -1.058046713476
 H    1.929244594471    2.189428124515   -1.631046713476
 H    0.894244594471    3.514428124515   -1.136046713476
 H    1.234184594471    3.278563224515   -2.868088713476
