31
0 1 
 C   -0.545639534102    2.897914990592   -0.827820559027
 C   -1.383639534102   -0.325085009408    1.020179440973
 C   -0.668639534102    0.691914990592    0.377179440973
 C   -2.770639534102   -0.218085009408    1.151179440973
 C   -1.324639534102    1.808914990592   -0.135820559027
 C   -3.440639534102    0.893914990592    0.640179440973
 C   -2.710639534102    1.900914990592   -0.000820559027
 O   -3.474639534102   -1.203085009408    1.782179440973
 H   -0.862639534102   -1.180085009408    1.417179440973
 H    0.402360465898    0.618914990592    0.289179440973
 H   -2.894639534102   -1.981085009408    1.858179440973
 H   -4.509639534102    0.976914990592    0.747179440973
 H    0.094360465898    3.385914990592   -0.090820559027
 H   -1.236639534102    3.642914990592   -1.220820559027
 H   -3.233639534102    2.761914990592   -0.395820559027
 H    0.078760465898    2.521974990592   -1.651711559027
 C    1.174360465898   -2.727085009408   -1.678820559027
 C    1.989360465898   -1.512085009408    0.383179440973
 C    1.905360465898   -1.592085009408   -1.018820559027
 C    2.726360465897   -0.491085009408    0.991179440973
 C    2.557360465897   -0.639085009408   -1.801820559027
 C    3.388360465898    0.464914990592    0.196179440973
 C    3.297360465898    0.385914990592   -1.206820559027
 H    1.495360465898   -2.252085009408    0.992179440973
 H    2.792360465898   -0.443085009408    2.070179440973
 H    0.966360465898   -2.487085009408   -2.722820559027
 H    0.218360465898   -2.823085009408   -1.165820559027
 H    2.440360465897   -0.682085009408   -2.870820559027
 H    3.960360465897    1.257914990592    0.660179440973
 H    3.786360465897    1.127914990592   -1.822820559027
 H    1.709450465898   -3.686205009408   -1.617523559027
