21
0 1 
 C   -0.384518322799    2.038052887321   -1.927186607850
 C    0.716481677201    1.389052887320   -1.139186607850
 C    2.116481677201   -0.188947112679   -0.529186607850
 C    1.433481677201    1.845052887321   -0.074186607850
 N    1.168481677201    0.111052887321   -1.407186607850
 N    2.298481677201    0.850052887320    0.281813392150
 H    2.615481677201   -1.149947112679   -0.537186607850
 H   -1.285518322799    1.994052887321   -1.317186607850
 H   -0.531518322799    1.424052887320   -2.822186607850
 H    2.964481677201    0.901052887321    1.044813392150
 H    1.399481677201    2.784052887321    0.447813392150
 H   -0.189048322799    3.074122887321   -2.240796607850
 C   -2.916518322799   -1.874947112679    1.734813392150
 C   -1.610518322799   -1.421947112679    1.114813392150
 O   -0.529518322799   -1.720947112679    1.625813392150
 N   -1.714518322799   -0.689947112679    0.013813392150
 H   -0.875518322799   -0.360947112679   -0.447186607850
 H   -2.627518322799   -0.467947112679   -0.360186607850
 H   -3.679518322799   -1.890947112680    0.955813392150
 H   -3.202518322799   -1.153947112679    2.500813392150
 H   -2.852318322799   -2.877867112679    2.182063392150
