23
0 1 
 C    2.536384702627    0.029730986273    2.011581164734
 C   -0.597615297373    0.201730986273   -0.127418835266
 C   -1.617615297373    0.137730986273    0.812581164734
 C    0.733384702627    0.151730986273    0.251581164734
 C    1.088384702627    0.070730986273    1.584581164734
 C   -1.294615297373    0.055730986273    2.121581164734
 C    0.059384702627   -0.001269013727    2.523581164734
 H   -0.854615297373    0.269730986273   -1.173418835266
 H   -2.652615297373    0.162730986273    0.500581164734
 H    1.500384702627    0.192730986273   -0.509418835266
 H   -2.078615297373    0.006730986273    2.866581164734
 H    2.694384702627    0.787730986273    2.778581164734
 H    3.149384702627    0.293730986273    1.154581164734
 H    0.296384702627   -0.100269013727    3.572581164734
 H    2.875744702627   -0.944439013727    2.393451164734
 C   -0.229615297373    0.408730986273   -3.909418835266
 C   -0.825615297373   -0.970269013727   -4.202418835266
 H    0.224384702627    0.819730986273   -4.812418835266
 H   -1.011615297373    1.086730986273   -3.569418835266
 H    0.522384702627    0.360730986273   -3.122418835266
 H   -1.300615297373   -1.337269013727   -3.295418835266
 H   -0.021435297373   -1.666219013727   -4.483378835266
 H   -1.586835297373   -0.939449013727   -4.995888835266
