18
0 1 
 C    1.132485032233    2.264669409397    1.121728541357
 C    0.010485032233    1.579669409397    0.343728541357
 O   -1.171514967767    1.717669409397    0.729728541357
 O    0.309485032233    0.908669409397   -0.669271458643
 H    1.155485032233    3.327669409397    0.871728541357
 H    2.092485032233    1.830669409397    0.829728541357
 H    1.010575032233    2.155749409397    2.209508541357
 C   -0.260514967767   -2.210330590603    0.067728541357
 C    1.119485032233   -2.608330590603   -0.442271458643
 N   -1.027514967767   -1.495330590603   -0.988271458643
 H   -0.793514967767   -3.116330590603    0.378728541357
 H   -0.147514967767   -1.562330590603    0.943728541357
 H    1.648485032233   -1.711330590603   -0.776271458643
 H    1.004485032233   -3.282330590603   -1.295271458643
 H   -0.943514967767   -1.915330590603   -1.911271458643
 H   -2.000514967767   -1.369330590603   -0.730271458643
 H   -0.622514967767   -0.553330590603   -1.072271458643
 H    1.716995032233   -3.107940590603    0.334498541357
