22
1 1 
 C    3.373430209056    0.021699307799    0.484512381597
 C    1.262430209056    0.380699307799    1.734512381597
 N    2.197430209056    0.792699307799    0.889512381597
 N    1.323430209056   -0.813300692201    2.293512381597
 N    0.250430209056    1.177699307799    2.013512381597
 H    2.055430209056    1.704699307799    0.466512381597
 H    2.113430209056   -1.409300692201    2.115512381597
 H    0.623430209056   -1.103300692201    2.957512381597
 H    0.180430209056    2.057699307799    1.516512381597
 H   -0.455569790944    0.906699307799    2.680512381597
 H    3.524430209056   -0.854300692201    1.116512381597
 H    4.266430209056    0.640699307799    0.590512381597
 H    3.280370209056   -0.312010692201   -0.559507618403
 C   -0.831569790944   -0.447300692201   -0.862487618403
 C   -3.409569790944   -0.883300692201   -1.761487618403
 S   -1.880569790944   -0.061300692201   -2.257487618403
 H   -0.675569790944   -1.524300692201   -0.807487618403
 H    0.126430209056    0.058699307799   -0.987487618403
 H   -1.308569790944   -0.102300692201    0.055512381597
 H   -3.879569790944   -0.281300692201   -0.982487618403
 H   -3.170569790944   -1.856300692201   -1.335487618403
 H   -4.121160790944   -1.005860692201   -2.591316618403
