24
0 1 
 C    0.938243457703    0.778197184586   -2.888570853999
 C    1.763243457703   -0.443802815414   -3.305570853999
 H   -0.108756542297    0.657197184586   -3.154570853999
 H    0.994243457703    0.895197184586   -1.806570853999
 H    1.333243457703    1.679197184586   -3.358570853999
 H    1.278243457703   -1.345802815414   -2.938570853999
 H    1.854533457703   -0.499870815414   -4.400340853999
 H    2.778253457703   -0.409407815414   -2.883000853999
 C   -1.359756542297    2.244197184586    2.471429146001
 C   -1.116756542297   -0.492802815414   -0.202570853999
 C    0.092243457703   -1.107802815414    0.100429146001
 C   -1.552756542297    0.598197184586    0.534429146001
 C   -0.806756542297    1.102197184586    1.596429146001
 C    0.832243457703   -0.653802815414    1.198429146001
 C    0.384243457703    0.447197184586    1.928429146001
 O    0.417243457703   -2.210802815414   -0.626570853999
 H   -1.714756542297   -0.873802815414   -1.015570853999
 H   -2.500756542297    1.057197184586    0.282429146001
 H    1.755243457703   -1.146802815414    1.455429146001
 H    1.157243457703   -2.674802815414   -0.180570853999
 H   -1.685756542297    1.799197184586    3.410429146001
 H   -2.237756542297    2.658197184586    1.984429146001
 H    0.965243457703    0.808197184586    2.763429146001
 H   -0.657656542297    3.052157184586    2.724909146001
