24
0 1 
 C    2.041661210130    0.476799243019   -1.050040213025
 C    0.578661210130    0.193799243019   -1.178040213025
 C   -0.347338789870    1.221799243019   -1.083040213025
 C    0.119661210130   -1.106200756981   -1.329040213025
 C   -1.715338789870    0.954799243019   -1.157040213025
 C   -1.250338789870   -1.369200756981   -1.400040213025
 C   -2.162338789870   -0.342200756981   -1.324040213025
 H    2.603661210130   -0.457200756981   -1.104040213025
 H    2.222661210130    0.898799243019   -0.064040213025
 H   -0.016338789870    2.240799243019   -0.936040213025
 H    0.821661210130   -1.927200756981   -1.386040213025
 H   -2.421338789870    1.768799243019   -1.081040213025
 H   -1.587338789870   -2.387200756981   -1.517040213025
 H   -3.216338789870   -0.554200756981   -1.400040213025
 H    2.434171210130    1.172738243019   -1.806090213025
 C    0.153661210130   -0.184200756981    2.512959786975
 C    0.656661210130    1.253799243019    2.602959786975
 O    1.239661210130   -1.009200756981    2.193959786975
 H   -0.289338789870   -0.485200756981    3.463959786975
 H   -0.598338789870   -0.263200756981    1.724959786975
 H    1.165661210130    1.460799243019    1.664959786975
 H    0.911661210130   -1.916200756981    2.101959786975
 H    1.382641210130    1.394920243019    3.417229786975
 H   -0.166178789870    1.982393243019    2.648629786975
