34
0 1 
 C   -5.412902921592   -1.669212219404    1.329282303181
 C   -1.266902921592   -1.082212219404    0.225282303181
 C   -2.298902921592   -0.559212219404   -0.559717696819
 C   -1.602902921592   -1.768212219404    1.390282303181
 C   -3.635902921592   -0.748212219404   -0.224717696819
 C   -2.941902921592   -1.948212219404    1.744282303181
 C   -3.975902921592   -1.447212219404    0.939282303181
 H   -0.232902921592   -0.952212219404   -0.062717696819
 H   -2.046902921592   -0.017212219404   -1.459717696819
 H   -0.821902921592   -2.175212219404    2.016282303181
 H   -4.408902921592   -0.343212219404   -0.862717696819
 H   -3.175902921592   -2.493212219404    2.634282303181
 H   -5.995902921592   -0.780212219404    1.090282303181
 H   -5.350902921592   -1.732212219404    2.386282303181
 H   -5.863262921592   -2.545694219404    0.840452303181
 C    0.757097078408    1.699787780596    1.345282303181
 C    1.677097078408    2.663787780596    2.156282303181
 C    1.582097078408    1.186787780596    0.189282303181
 C    1.599097078408    1.934787780596   -0.995717696819
 C    2.361097078408    0.038787780596    0.319282303181
 C    2.354097078408    1.527787780596   -2.086717696819
 C    3.143097078408   -0.374212219404   -0.762717696819
 C    3.122097078408    0.377787780596   -1.947717696819
 O    3.917097078408   -0.065212219404   -2.944717696819
 H    0.421097078408    0.873787780596    1.974282303181
 H   -0.124902921592    2.190787780596    0.935282303181
 H    2.297097078408    3.212787780596    1.446282303181
 H    0.992097078408    2.829787780596   -1.068717696819
 H    2.358097078408   -0.528212219404    1.239282303181
 H    2.328097078408    2.092787780596   -3.000717696819
 H    3.752097078408   -1.264212219404   -0.673717696819
 H    4.386097078408   -0.860212219404   -2.673717696819
 H    2.311257078408    2.100437780596    2.856622303181
 H    1.059947078408    3.417027780596    2.667902303181
