23
0 1 
 C    0.381507374684    0.884464477903   -2.470744021476
 C   -0.140492625316   -0.502535522097   -0.434744021476
 C    0.806507374684    0.112464477903   -1.257744021476
 C    0.251507374684   -1.147535522097    0.748255978524
 C    1.614507374684   -1.180535522097    1.112255978524
 C    2.171507374684    0.064464477903   -0.905744021476
 C    2.571507374684   -0.575535522097    0.276255978524
 H   -1.187492625316   -0.461535522097   -0.694744021476
 H   -0.486492625316   -1.597535522097    1.394255978524
 H   -0.705492625316    0.869464477903   -2.570744021476
 H    0.805507374684    0.391464477903   -3.339744021476
 H    1.923507374684   -1.674535522097    2.023255978524
 H    2.920507374684    0.514464477903   -1.539744021476
 H    3.618507374684   -0.613535522097    0.540255978524
 H    0.734187374684    1.925934477903   -2.439795021476
 C   -2.684492625316    1.343464477903    1.523255978524
 C   -3.944492625316    0.572464477903    1.260255978524
 H   -2.829492625316    2.089464477903    2.301255978524
 H   -1.904492625316    0.654464477903    1.846255978524
 H   -2.356492625316    1.835464477903    0.609255978524
 H   -3.736492625316   -0.215535522097    0.541255978524
 H   -4.734012625316    1.242184477903    0.888590378524
 H   -4.296812625316    0.145654477903    2.210888978524
