38
0 1 
 C    4.254705929773   -1.221225637658   -1.370565350045
 C    1.754705929773   -1.827225637658   -1.863565350045
 C    3.030705929773   -1.277225637658   -2.225565350045
 C    0.890705929773   -1.668225637658   -2.974565350045
 C    2.903705929773   -0.821225637658   -3.491565350045
 C   -0.060294070227   -2.875225637658   -0.695565350045
 C   -0.885294070227   -2.711225637658   -1.811565350045
 C    1.248705929773   -2.429225637658   -0.705565350045
 C   -0.426294070227   -2.096225637658   -2.958565350045
 N    1.617705929773   -1.055225637658   -3.954565350045
 H   -0.457294070227   -3.356225637658    0.190434649955
 H   -1.907294070227   -3.065225637658   -1.771565350045
 H    1.877705929773   -2.541225637658    0.166434649955
 H   -1.066294070227   -1.962225637658   -3.819565350045
 H    5.130705929773   -1.279225637658   -2.014565350045
 H    4.257705929773   -2.092225637658   -0.714565350045
 H    3.693705929773   -0.352225637658   -4.069565350045
 H    1.291705929773   -0.813225637658   -4.883565350045
 H    4.324355929773   -0.304945637658   -0.765935350045
 C   -2.653294070227    3.877774362342    3.995434649955
 C   -1.682294070227    0.930774362342    1.870434649955
 C   -1.379294070227    2.214774362342    2.376434649955
 C   -2.481294070227    2.600774362342    3.234434649955
 C   -3.374294070227    1.588774362342    3.193434649955
 C   -0.813294070227    0.228774362342    1.044434649955
 C    0.374705929773    0.815774362342    0.674434649955
 C    0.702705929773    2.090774362342    1.142434649955
 C   -0.154294070227    2.792774362342    2.003434649955
 N   -2.902294070227    0.581774362342    2.389434649955
 H   -1.083294070227   -0.749225637658    0.677434649955
 H    1.047705929773    0.295774362342    0.007434649955
 H   -3.406294070227   -0.277225637658    2.201434649955
 H    1.626705929773    2.545774362342    0.834434649955
 H   -4.314294070227    1.571774362342    3.734434649955
 H    0.109705929773    3.770774362342    2.369434649955
 H   -3.642294070227    3.882774362342    4.452434649955
 H   -2.637294070227    4.685774362342    3.269434649955
 H   -1.889084070227    4.071524362342    4.762534649955
