22
-1 1 
 C    3.363634364463   -2.577849892631    0.792484276241
 C    0.283634364463   -0.674849892631   -0.432515723759
 C    1.193634364463   -1.717849892631   -0.181515723759
 C    0.596634364463    0.626150107369   -0.028515723759
 C    2.408634364463   -1.458849892631    0.468484276241
 C    1.808634364463    0.889150107369    0.605484276241
 C    2.703634364463   -0.152849892631    0.865484276241
 H   -0.656365635537   -0.883849892631   -0.925515723759
 H    0.947634364463   -2.724849892631   -0.484515723759
 H   -0.091365635537    1.437150107369   -0.206515723759
 H    2.047634364463    1.899150107369    0.912484276241
 H    2.799634364463   -3.368849892631    1.291484276241
 H    4.117634364463   -2.222849892631    1.495484276241
 H    3.627634364463    0.062150107369    1.378484276241
 H    3.874421364463   -3.016699892631   -0.077295723759
 C   -2.938365635537    1.440150107369    0.926484276241
 C   -2.797365635537    1.179150107369   -0.568515723759
 O   -2.277365635537    2.046150107369   -1.308515723759
 O   -3.180365635537    0.065150107369   -0.987515723759
 H   -2.053365635537    1.035150107369    1.420484276241
 H   -3.810365635537    0.912150107369    1.321484276241
 H   -3.040439615537    2.507220107369    1.173344276241
