21
0 1 
 C    0.045729019388    0.162213176848    2.363811003623
 C    1.073729019388    2.523213176848    1.368811003623
 S    1.609729019388    1.039213176848    2.230811003623
 H   -0.439270980612    0.105213176848    1.391811003623
 H    0.227729019388   -0.841786823152    2.741811003623
 H   -0.612270980612    0.708213176848    3.039811003623
 H    0.406729019388    2.225213176848    0.558811003623
 H    1.930729019388    3.005213176848    0.902811003623
 H    0.543319019388    3.247283176848    2.004721003623
 C   -1.637270980612   -2.527786823152   -0.287188996377
 C    0.131729019388   -0.756786823152   -0.976188996377
 C   -1.039270980612   -1.431786823152   -1.123188996377
 C   -0.908270980612    0.059213176848   -2.736188996377
 N    0.187729019388    0.170213176848   -1.994188996377
 N   -1.672270980612   -0.905786823152   -2.232188996377
 H    0.873729019388   -0.915786823152   -0.204188996377
 H    0.930729019388    0.860213176848   -2.151188996377
 H   -2.632270980612   -2.214786823152    0.033811003623
 H   -1.023270980612   -2.621786823152    0.597811003623
 H   -1.142270980612    0.666213176848   -3.604188996377
 H   -1.717550980612   -3.493976823152   -0.806838996377
