23
0 1 
 C    0.803625453270    0.695863834775    2.211110863492
 C    0.641625453270    0.398863834775   -0.276889136508
 C    0.998625453270   -0.119136165225    0.960110863492
 C    0.802625453270   -0.361136165225   -1.432889136508
 C    1.510625453270   -1.413136165225    1.029110863492
 C    1.320625453270   -1.649136165225   -1.357889136508
 C    1.678625453270   -2.172136165225   -0.126889136508
 H    0.235625453270    1.397863834775   -0.342889136508
 H    0.515625453270    0.043863834775   -2.392889136508
 H    0.742625453270    0.006863834775    3.053110863492
 H   -0.155374546730    1.210863834775    2.152110863492
 H    1.786625453270   -1.833136165225    1.986110863492
 H    1.447625453270   -2.240136165225   -2.253889136508
 H    2.089625453270   -3.163136165225   -0.086889136508
 H    1.603965453270    1.423183834775    2.412268863492
 C   -2.760374546730    1.559863834775   -0.330889136508
 C   -3.987374546730    2.346863834775   -0.770889136508
 H   -2.320374546730    1.995863834775    0.569110863492
 H   -3.047374546730    0.528863834775   -0.136889136508
 H   -2.021374546730    1.563863834775   -1.132889136508
 H   -4.405374546730    1.853863834775   -1.649889136508
 H   -3.714214546730    3.378383834775   -1.038012136508
 H   -4.767204546730    2.325183834775    0.004605863492
