20
0 1 
 C    1.474510276929    1.610476503909    3.145217465000
 C    0.202510276929    1.089476503909    1.136217465000
 N   -0.605489723071    1.455476503909    0.166217465000
 N    0.564510276929    1.964476503909    2.057217465000
 N    0.653510276929   -0.145523496091    1.225217465000
 H   -0.950489723071    2.403476503909    0.118217465000
 H   -0.885489723071    0.780476503909   -0.544782535000
 H    0.205510276929    2.915476503909    1.995217465000
 H    1.264510276929   -0.408523496091    1.985217465000
 H    0.396510276929   -0.832523496091    0.518217465000
 H    2.427510276929    1.302476503909    2.715217465000
 H    1.043510276929    0.779476503909    3.707217465000
 H    1.636030276929    2.463166503909    3.821107465000
 C   -0.682489723071   -2.100523496091   -3.242782535000
 C   -0.563489723071   -1.445523496091   -1.860782535000
 O   -1.534489723071   -0.775523496091   -1.425782535000
 O    0.487510276929   -1.622523496091   -1.200782535000
 H   -1.459489723071   -1.596523496091   -3.813782535000
 H   -0.952489723071   -3.150523496091   -3.119782535000
 H    0.247650276929   -2.019483496091   -3.824392535000
