21
1 1 
 C    0.991838949449   -0.231118242982    2.101080664584
 C    0.675838949449   -0.856118242982    3.473080664584
 H    1.985838949449   -0.517118242982    1.758080664584
 H    0.270838949449   -0.605118242982    1.377080664584
 H    0.918838949449    0.855881757018    2.155080664584
 H    0.814838949449   -1.933118242982    3.388080664584
 H    1.386768949449   -0.457738242982    4.211910664584
 H   -0.368081050551   -0.675478242982    3.769060664584
 C   -0.180161050551   -1.661118242982   -1.814919335416
 C   -0.367161050551    0.677881757018   -0.973919335416
 N   -0.864161050551   -0.531118242982   -1.208919335416
 N    0.866838949449    1.029881757018   -1.269919335416
 N   -1.170161050551    1.553881757018   -0.396919335416
 H   -1.824161050551   -0.670118242982   -0.891919335416
 H    1.485838949449    0.366881757018   -1.703919335416
 H    1.190838949449    1.964881757018   -1.075919335416
 H   -2.103161050551    1.228881757018   -0.148919335416
 H   -0.870161050551    2.491881757018   -0.187919335416
 H   -0.723161050551   -2.573118242982   -1.559919335416
 H    0.820838949449   -1.747118242982   -1.387919335416
 H   -0.104381050551   -1.596888242982   -2.910429335416
