19
0 1 
 C   -0.835702547805   -0.557094849183   -0.860086587092
 C   -2.198702547805   -1.121094849183   -0.468086587092
 C   -0.735702547805   -0.221094849183   -2.339086587092
 H   -0.653702547805    0.349905150817   -0.286086587092
 H   -0.069702547805   -1.292094849183   -0.603086587092
 H   -2.333702547805   -2.061094849183   -1.009086587092
 H   -1.113702547805   -1.049094849183   -2.941086587092
 H   -1.327702547805    0.670905150817   -2.545086587092
 H   -3.006942547805   -0.416608849183   -0.713946587092
 H   -2.211052547805   -1.344210849183    0.608973412908
 H    0.314837452195   -0.033340849183   -2.605736587092
 C    1.884297452195    1.180905150817    1.085913412908
 C    1.828297452195    0.684905150817    2.521913412908
 H    2.249297452195    0.384905150817    0.436913412908
 H    0.885297452195    1.469905150817    0.766913412908
 H    2.532297452195    2.054905150817    1.010913412908
 H    1.358297452195   -0.283094849183    2.521913412908
 H    2.846547452195    0.589916150817    2.927053412908
 H    1.214727452195    1.357670150817    3.139093412908
