34
0 1 
 C   -1.605521451998   -0.565860744120   -2.434896614839
 C   -2.245521451998   -0.006860744120   -0.046896614839
 C   -1.671521451998   -0.825860744120   -0.959896614839
 C   -1.249521451998   -1.610860744120    1.176103385161
 C   -1.031521451998   -1.891860744120   -0.201896614839
 C   -0.760521451998   -2.429860744120    2.186103385161
 C   -0.281521451998   -3.039860744120   -0.540896614839
 C   -0.035521451998   -3.558860744120    1.831103385161
 C    0.206478548002   -3.872860744120    0.486103385161
 N   -1.994521451998   -0.454860744120    1.235103385161
 H   -2.771521451998    0.901139255880   -0.302896614839
 H   -2.195521451998    0.083139255880    2.081103385161
 H   -0.580521451998   -0.581860744120   -2.775896614839
 H   -1.960521451998    0.455139255880   -2.584896614839
 H   -0.968521451998   -2.202860744120    3.222103385161
 H   -0.072521451998   -3.276860744120   -1.570896614839
 H    0.345478548002   -4.210860744120    2.604103385161
 H    0.776478548002   -4.754860744120    0.230103385161
 H   -2.194811451998   -1.235270744120   -3.078813614839
 C    0.839478548002    3.749139255880   -2.374896614839
 C    0.317478548002    2.362139255880   -0.338896614839
 C    1.264478548002    2.977139255880   -1.161896614839
 C    0.709478548002    1.717139255880    0.844103385161
 C    2.072478548002    1.684139255880    1.208103385161
 C    2.629478548002    2.929139255880   -0.809896614839
 C    3.029478548002    2.289139255880    0.372103385161
 H   -0.729521451998    2.403139255880   -0.598896614839
 H   -0.028521451998    1.267139255880    1.490103385161
 H   -0.247521451998    3.734139255880   -2.474896614839
 H    1.263478548002    3.256139255880   -3.243896614839
 H    2.381478548002    1.190139255880    2.119103385161
 H    3.378478548002    3.379139255880   -1.443896614839
 H    4.076478548002    2.251139255880    0.636103385161
 H    1.192158548002    4.790609255880   -2.343947614839
