21
0 1 
 C   -2.403729900465   -2.822280856277    0.024275843812
 C   -0.640729900465   -0.073280856277    1.626275843812
 C   -0.311729900465   -1.301280856277   -0.171724156188
 C   -1.455729900465   -1.728280856277    0.423275843812
 N    0.177270099535   -0.272280856277    0.600275843812
 N   -1.633729900465   -0.946280856277    1.545275843812
 H    1.032270099535    0.241719143723    0.413275843812
 H   -0.521729900465    0.673719143723    2.402275843812
 H    0.124270099535   -1.696280856277   -1.078724156188
 H   -2.650729900465   -3.401280856277    0.913275843812
 H   -1.894729900465   -3.480280856277   -0.680724156188
 H   -3.330579900465   -2.458720856277   -0.443460156188
 C    1.357270099535    2.252719143723   -0.927724156188
 C    1.900270099535    2.998719143723   -2.152724156188
 O    2.220270099535    1.204719143723   -0.530724156188
 H    1.223270099535    2.944719143723   -0.096724156188
 H    0.388270099535    1.831719143723   -1.186724156188
 H    1.247270099535    3.846719143723   -2.349724156188
 H    3.073270099535    1.572719143723   -0.260724156188
 H    1.915367099535    2.350309143723   -3.041171156188
 H    2.900776099535    3.407749143723   -1.948569156188
