23
0 1 
 C    1.678407376809    0.687382932380   -2.865493788245
 C    0.037407376809    0.546382932380    0.650506211755
 C    0.233407376809    0.799382932380   -0.733493788245
 C    1.025407376809   -0.147617067620    1.377506211755
 C    1.395407376809    0.366382932380   -1.390493788245
 C    2.184407376809   -0.582617067620    0.727506211755
 C    2.357407376809   -0.328617067620   -0.646493788245
 H   -0.861592623191    0.884382932380    1.155506211755
 H   -0.514592623191    1.336382932380   -1.301493788245
 H    0.895407376809   -0.345617067620    2.433506211755
 H    2.946407376809   -1.108617067620    1.282506211755
 H    2.495407376809    0.038382932380   -3.187493788245
 H    2.025407376809    1.722382932380   -2.905493788245
 H    3.251407376809   -0.672617067620   -1.150493788245
 H    0.839937376809    0.517882932380   -3.557033788245
 C   -3.322592623191   -1.086617067620    1.319506211755
 C   -4.538592623191   -0.147617067620    1.462506211755
 H   -3.542592623191   -1.870617067620    0.593506211755
 H   -2.457592623191   -0.522617067620    0.986506211755
 H   -3.086592623191   -1.541617067620    2.282506211755
 H   -4.310592623191    0.628382932380    2.193506211755
 H   -5.406744623191   -0.726817067620    1.810056211755
 H   -4.783778623191    0.393282932380    0.536566211755
