16
0 1 
 C   -0.253600854070   -1.454334974960   -1.409066281690
 C    0.292399145930   -2.763334974960   -0.823066281690
 H   -0.178600854070   -1.469334974960   -2.497066281690
 H   -1.296600854070   -1.315334974960   -1.124066281690
 H    0.289399145930   -0.592334974960   -1.035066281690
 H    0.095399145930   -2.760334974960    0.250933718310
 H    1.379229145930   -2.835224974960   -0.976766281690
 H   -0.226120854070   -3.625394974960   -1.268066281690
 C    0.061399145930    1.487665025040    0.676933718310
 C   -0.098600854070    2.730665025040    1.547933718310
 H    1.113399145930    1.265665025040    0.501933718310
 H   -0.380600854070    0.628665025040    1.182933718310
 H   -0.445600854070    1.636665025040   -0.277066281690
 H    0.504399145930    2.571665025040    2.441933718310
 H    0.269339145930    3.622595025040    1.019633718310
 H   -1.142650854070    2.864845025040    1.867233718310
