15
0 1 
 C    0.508917321361    1.804852804209   -1.777006497658
 C    0.843917321361    1.034852804209   -0.465006497658
 O    1.104917321361   -0.190147195791   -0.469006497658
 O    0.711917321361    1.658852804209    0.619993502342
 H    0.891917321361    2.824852804209   -1.698006497658
 H   -0.579082678639    1.874852804209   -1.851006497658
 H    0.878127321361    1.375692804209   -2.720136497658
 C   -2.076082678639   -2.175147195791    0.521993502342
 N   -0.899082678639   -1.813147195791    1.349993502342
 H   -0.998082678639   -0.891147195791    1.758993502342
 H   -0.767082678639   -2.470147195791    2.110993502342
 H   -0.043082678639   -1.798147195791    0.801993502342
 H   -2.999082678639   -2.141147195791    1.106993502342
 H   -1.961082678639   -3.222147195791    0.217993502342
 H   -2.153272678639   -1.582367195791   -0.401396497658
