26
0 1 
 C    0.148828272201   -1.178735216761   -1.355309536127
 C   -0.357171727799   -1.199735216761   -2.810309536127
 C    0.253828272201    0.187264783239   -0.719309536127
 C   -0.809171727799    0.772264783239   -0.064309536127
 C    1.445828272201    0.876264783239   -0.775309536127
 C   -0.682171727799    2.036264783239    0.539690463873
 C    1.581828272201    2.118264783239   -0.206309536127
 C    0.530828272201    2.697264783239    0.450690463873
 H   -0.496171727799   -1.812735216761   -0.750309536127
 H    1.135828272201   -1.605735216761   -1.327309536127
 H   -0.075171727799   -2.168735216761   -3.208309536127
 H   -1.745171727799    0.241264783239    0.000690463873
 H    2.293828272201    0.435264783239   -1.280309536127
 H   -1.516171727799    2.488264783239    1.060690463873
 H    2.527828272201    2.639264783239   -0.272309536127
 H    0.647828272201    3.673264783239    0.903690463873
 H    0.126524272201   -0.418555216761   -3.415119536127
 H   -1.455465727799   -1.165595216761   -2.861156536127
 C   -0.193171727799   -2.390735216761    2.123690463873
 C   -1.594171727799   -2.807735216761    2.559690463873
 H    0.042828272201   -2.784735216761    1.139690463873
 H   -0.116171727799   -1.304735216761    2.110690463873
 H    0.534828272201   -2.777735216761    2.834690463873
 H   -1.690171727799   -2.467735216761    3.591690463873
 H   -1.706741727799   -3.901865216761    2.545350463873
 H   -2.381341727799   -2.293455216761    1.988830463873
