22
-1 1 
 C   -0.321826499222    1.533030934291    0.637182709527
 C   -1.328826499222    2.456030934291   -0.042817290473
 C    1.093173500778    2.065030934291    0.642182709527
 O    1.283173500778    3.266030934291    0.345182709527
 O    2.013173500778    1.270030934291    0.943182709527
 H   -0.655826499222    1.265030934291    1.643182709527
 H   -0.222826499222    0.665030934291    0.037182709527
 H   -0.833826499222    2.991030934291   -0.854817290473
 H   -1.729826499222    3.181030934291    0.666182709527
 H   -2.135556499222    1.864380934291   -0.500127290473
 C   -1.537826499222   -1.725969065709   -0.255817290473
 C   -1.704826499222   -2.716969065709    0.890182709527
 C   -0.204826499222   -1.928969065709   -0.901817290473
 O    0.342173500778   -0.983969065709   -1.452817290473
 N    0.266173500778   -3.165969065709   -0.809817290473
 H   -2.297826499222   -1.795969065709   -1.032817290473
 H   -1.498826499222   -0.772969065709    0.178182709527
 H   -1.754826499222   -2.069969065709    1.768182709527
 H   -0.892826499222   -3.391969065709    1.151182709527
 H    1.171173500778   -3.359969065709   -1.217817290473
 H   -0.254826499222   -3.901969065709   -0.365817290473
 H   -2.652086499222   -3.274736065709    0.850292709527
