28
0 1 
 C   -3.245440411053   -2.998592814145   -1.730859779992
 C   -1.412440411053   -1.142592814145   -1.404859779992
 C   -2.437440411053   -1.811592814145   -2.161859779992
 C   -0.931440411053   -0.070592814145   -2.199859779992
 C   -2.535440411053   -1.144592814145   -3.342859779992
 C    0.158559588947   -0.474592814145    0.303140220008
 C    0.615559588947    0.576407185855   -0.509859779992
 C   -0.848440411053   -1.339592814145   -0.136859779992
 C    0.078559588947    0.787407185855   -1.764859779992
 N   -1.637440411053   -0.105592814145   -3.374859779992
 H    0.604559588947   -0.634592814145    1.274140220008
 H    1.402559588947    1.226407185855   -0.150859779992
 H   -1.144440411053   -2.178592814145    0.468140220008
 H    0.460559588947    1.563407185855   -2.399859779992
 H   -2.590440411053   -3.691592814145   -1.200859779992
 H   -3.608440411053   -3.516592814145   -2.619859779992
 H   -3.230440411053   -1.395592814145   -4.136859779992
 H   -1.538440411053    0.535407185855   -4.151859779992
 H   -4.100715411053   -2.745522814145   -1.087073779992
 C    2.010559588947    1.313407185855    3.048140220008
 C    1.004559588947    1.446407185855    4.191140220008
 S    3.657559588947    1.959407185855    3.411140220008
 H    2.100559588947    0.255407185855    2.796140220008
 H    1.627559588947    1.837407185855    2.170140220008
 H    0.939559588947    2.491407185855    4.488140220008
 H    4.283559588947    1.432407185855    2.353140220008
 H    1.307939588947    0.826877185855    5.047964220008
 H    0.016786588947    1.150577185855    3.808008220008
