16
0 1 
 C    1.387653804882   -0.648871932139   -0.151487318374
 C    2.768653804882   -1.341871932139   -0.076487318374
 H    1.359653804882    0.214128067861    0.514512681626
 H    1.203653804882   -0.298871932139   -1.169487318374
 H    0.600653804882   -1.344871932139    0.135512681626
 H    3.537653804882   -0.599871932139   -0.286487318374
 H    2.930613804882   -1.761701932139    0.927261681626
 H    2.842353804882   -2.131771932139   -0.838480318374
 C   -1.877346195118    1.130128067861    0.850512681626
 C   -2.284346195118    0.863128067861   -0.621487318374
 H   -2.400346195118    2.009128067861    1.224512681626
 H   -2.133346195118    0.265128067861    1.464512681626
 H   -0.802346195118    1.303128067861    0.912512681626
 H   -1.722346195118   -0.005871932139   -0.969487318374
 H   -2.001716195118    1.723098067861   -1.246441318374
 H   -3.350366195118    0.598438067861   -0.680952318374
