19
0 1 
 C   -0.651034233603   -0.970057952754    0.680071160245
 C   -1.887034233603   -0.730057952754    1.558071160245
 C   -0.612034233603   -2.366057952754    0.064071160245
 H   -0.671034233603   -0.247057952754   -0.135928839755
 H    0.256965766397   -0.794057952754    1.259071160245
 H   -2.046034233603    0.348942047246    1.624071160245
 H   -0.692034233603   -3.095057952754    0.859071160245
 H   -1.467034233603   -2.470057952754   -0.599928839755
 H   -1.749104233603   -1.121367952754    2.576822160245
 H   -2.773514233603   -1.148407952754    1.058932160245
 H    0.278715766397   -2.617777952754   -0.530241339755
 C    1.389965766397    1.373942047246   -1.508928839755
 C    1.722965766397    2.618942047246   -0.733928839755
 H    1.678965766397    0.485942047246   -0.944928839755
 H    0.318965766397    1.342942047246   -1.714928839755
 H    1.924965766397    1.378942047246   -2.460928839755
 H    1.420965766397    3.479942047246   -1.334928839755
 H    2.809205766397    2.671742047246   -0.568729539755
 H    1.152595766397    2.657982047246    0.205836760245
