17
-2 1 
 C    1.655241747289   -0.238716338413    0.465998470434
 C    3.178241747289   -0.124716338413    0.324998470434
 C    1.010241747289    0.995283661587    1.099998470434
 O    0.360241747289    1.773283661587    0.368998470434
 O    1.134241747289    1.186283661587    2.331998470434
 H    1.233241747289   -0.408716338413   -0.528001529566
 H    1.412241747289   -1.112716338413    1.073998470434
 H    3.623241747289    0.066283661587    1.301998470434
 H    3.390241747289    0.735283661587   -0.311001529566
 H    3.637665747289   -1.019949338413   -0.119401529566
 C   -2.421758252711    0.330283661587   -1.560001529566
 C   -1.774758252711   -0.966716338413   -1.121001529566
 O   -1.134758252711   -1.658716338413   -1.948001529566
 O   -1.940758252711   -1.308716338413    0.066998470434
 H   -2.480758252711    1.031283661587   -0.728001529566
 H   -3.431758252711    0.086283661587   -1.888001529566
 H   -1.905007252711    0.801629661587   -2.409001529566
