20
0 1 
 C    1.796360591113   -2.206496223209    0.955488646565
 C    0.494360591113   -1.485496223209    0.638488646565
 O    0.232360591113   -0.380496223209    1.105488646565
 N   -0.345639408887   -2.124496223209   -0.149511353435
 H    1.632360591113   -2.794496223209    1.857488646565
 H    2.571360591113   -1.479496223209    1.189488646565
 H   -1.215639408887   -1.696496223209   -0.410511353435
 H   -0.142639408887   -3.063496223209   -0.458511353435
 H    2.124683591113   -2.897176223209    0.164818646565
 C   -0.773639408887    2.192503776791   -0.279511353435
 C    0.437360591113    2.632503776791   -1.081511353435
 C   -1.804639408887    1.450503776791   -1.126511353435
 H   -0.473639408887    1.637503776791    0.582488646565
 H   -1.245639408887    3.098503776791    0.101488646565
 H    0.218360591113    3.562503776791   -1.608511353435
 H    0.683360591113    1.856503776791   -1.806511353435
 H   -2.290639408887    2.155503776791   -1.811511353435
 H   -1.274639408887    0.709503776791   -1.735511353435
 H    1.290018591113    2.765463776791   -0.399384353435
 H   -2.546282408887    0.941403776791   -0.493437353435
