24
0 1 
 C   -1.050974032633    3.055263146421   -0.604177807770
 C    0.874025967367   -0.268736853579   -0.409177807770
 C    0.126025967367   -1.076736853579   -1.248177807770
 C    0.487025967367    1.067263146421   -0.201177807770
 C   -0.650974032633    1.607263146421   -0.823177807770
 C   -1.004974032633   -0.561736853579   -1.878177807770
 C   -1.394974032633    0.782263146421   -1.665177807770
 O    0.474025967367   -2.383736853579   -1.447177807770
 H    1.747025967367   -0.676736853579    0.078822192230
 H    1.074025967367    1.691263146421    0.457822192230
 H   -1.593974032633   -1.189736853579   -2.532177807770
 H   -0.075974032633   -2.803736853579   -2.119177807770
 H   -0.634974032633    3.406263146421    0.341822192230
 H   -2.135974032633    3.101263146421   -0.531177807770
 H   -2.275974032633    1.171263146421   -2.160177807770
 H   -0.730415532633    3.726500146421   -1.414537807770
 C    1.179025967367   -1.088736853579    3.078822192230
 C    0.713025967367   -0.609736853579    4.440822192230
 H    1.995025967367   -0.466736853579    2.712822192230
 H    1.545025967367   -2.112736853579    3.164822192230
 H    0.355025967367   -1.070736853579    2.367822192230
 H    1.576025967367   -0.509736853579    5.095822192230
 H    0.067025967367   -1.387736853579    4.846822192230
 H    0.170822267367    0.347346146421    4.437962192230
