24
0 1 
 C    2.384553385871    0.304837164289   -1.618049783715
 C    3.530553385871    0.345837164289   -2.629049783715
 O    2.320553385871    1.491837164289   -0.846049783715
 H    1.436553385871    0.194837164289   -2.141049783715
 H    2.507553385871   -0.553162835711   -0.958049783715
 H    3.312553385871   -0.397162835711   -3.398049783715
 H    3.167553385871    1.606837164289   -0.371049783715
 H    4.484596385871    0.113747164289   -2.133128783715
 H    3.577681385871    1.335527164289   -3.106854783715
 C   -0.652446614129    1.299837164289    2.478950216285
 C   -0.570446614129   -1.356162835711   -0.252049783715
 C   -0.158446614129   -0.414162835711    0.695950216285
 C   -1.927446614129   -1.628162835711   -0.423049783715
 C   -1.094446614129    0.254837164289    1.484950216285
 C   -2.869446614129   -0.951162835711    0.350950216285
 C   -2.453446614129   -0.011162835711    1.294950216285
 H    0.163553385871   -1.878162835711   -0.848049783715
 H    0.894553385871   -0.209162835711    0.823950216285
 H   -2.249446614129   -2.361162835711   -1.150049783715
 H   -3.924446614129   -1.158162835711    0.223950216285
 H   -1.491446614129    1.960837164289    2.688950216285
 H    0.112553385871    1.918837164289    2.009950216285
 H   -3.193446614129    0.507837164289    1.888950216285
 H   -0.250074614129    0.906737164289    3.424239216285
