28
0 1 
 C   -0.704478086141    3.973196203588   -2.222336332330
 C   -0.909478086141    1.773196203588    0.659663667670
 C   -0.495478086141    3.188196203588   -0.962336332330
 C    0.480521913859    3.322196203588   -0.024336332330
 N   -1.384478086141    2.240196203588   -0.497336332330
 N    0.215521913859    2.418196203588    0.972663667670
 H   -1.362478086141    0.986196203588    1.251663667670
 H    0.795521913859    2.228196203588    1.782663667670
 H    1.311521913859    4.009196203588   -0.063336332330
 H    0.084521913859    4.720196203588   -2.281336332330
 H   -1.652478086141    4.506196203588   -2.143336332330
 H   -0.698748086141    3.381666203588   -3.149736332330
 C   -0.245478086141   -3.723803796412   -2.120336332330
 C    0.627521913859   -1.401803796412    1.369663667670
 C    0.018521913859   -2.644803796412    1.489663667670
 C    0.967521913859   -0.904803796412    0.126663667670
 C   -0.259478086141   -3.387803796412    0.351663667670
 C    0.700521913859   -1.671803796412   -1.012336332330
 C    0.103521913859   -2.920803796412   -0.900336332330
 O    0.855521913859   -0.676803796412    2.500663667670
 H   -0.260478086141   -3.015803796412    2.463663667670
 H    0.558521913859   -1.144803796412    3.288663667670
 H    1.425521913859    0.066196203588    0.046663667670
 H   -0.775478086141   -4.328803796412    0.458663667670
 H    0.948521913859   -1.278803796412   -1.988336332330
 H    0.214521913859   -3.275803796412   -3.002336332330
 H   -1.321478086141   -3.670803796412   -2.247336332330
 H    0.018161913859   -4.790733796412   -2.073856332330
