27
0 1 
 C    0.519322336844   -1.504801770385    3.358771820783
 C    0.674322336844   -0.574801770385    0.914771820783
 C    1.235322336844   -1.164801770385    2.099771820783
 C    1.710322336844   -0.546801770385   -0.061228179217
 C    2.533322336844   -1.442801770385    1.826771820783
 C   -0.788677663156    0.439198229615   -0.735228179217
 C    0.275322336844    0.448198229615   -1.663228179217
 C   -0.600677663156   -0.105801770385    0.552771820783
 C    1.532322336844   -0.011801770385   -1.324228179217
 N    2.822322336844   -1.060801770385    0.541771820783
 H   -1.761677663156    0.808198229615   -1.025228179217
 H    0.100322336844    0.830198229615   -2.659228179217
 H   -1.417677663156   -0.146801770385    1.228771820783
 H    2.345322336844    0.000198229615   -2.035228179217
 H   -0.070677663156   -0.656801770385    3.695771820783
 H    1.247322336844   -1.742801770385    4.135771820783
 H    3.226322336844   -1.923801770385    2.510771820783
 H    3.717322336844   -1.209801770385    0.079771820783
 H   -0.146827663156   -2.366501770385    3.204771820783
 C   -3.816677663156    2.078198229615   -2.251228179217
 C   -4.967677663156    2.903198229615   -2.837228179217
 H   -3.552677663156    1.243198229615   -2.893228179217
 H   -2.940677663156    2.717198229615   -2.127228179217
 H   -4.104677663156    1.684198229615   -1.276228179217
 H   -4.591677663156    3.448198229615   -3.700228179217
 H   -5.800067663156    2.257146229615   -3.153058179217
 H   -5.300637663156    3.639148229615   -2.090558179217
