24
0 1 
 C    1.807708064746   -3.033232032950   -1.003556695812
 C    0.571708064746    0.110767967050    0.703443304188
 C    1.026708064746   -1.178232032950    0.499443304188
 C    0.378708064746    0.971767967050   -0.378556695812
 C    1.307708064746   -1.636232032950   -0.781556695812
 C    0.622708064746    0.509767967050   -1.672556695812
 C    1.104708064746   -0.777232032950   -1.859556695812
 O   -0.108291935254    2.231767967050   -0.145556695812
 H    0.380708064746    0.448767967050    1.710443304188
 H    1.183708064746   -1.830232032950    1.347443304188
 H   -0.195291935254    2.414767967050    0.789443304188
 H    0.475708064746    1.174767967050   -2.510556695812
 H    2.691708064746   -3.179232032950   -0.381556695812
 H    2.111708064746   -3.154232032950   -2.044556695812
 H    1.322708064746   -1.117232032950   -2.864556695812
 H    1.063828064746   -3.801622032950   -0.746225695812
 C   -3.016291935254    0.375767967050    1.879443304188
 C   -2.924291935254    1.874767967050    2.185443304188
 H   -3.584291935254    0.215767967050    0.965443304188
 H   -2.020291935254   -0.038232032950    1.731443304188
 H   -3.499291935254   -0.149232032950    2.705443304188
 H   -2.527291935254    2.370767967050    1.300443304188
 H   -3.927591935254    2.276377967050    2.390598304188
 H   -2.227891935254    2.074867967050    3.013086304188
