23
-1 1 
 C   -3.921059708578    2.277709820672   -1.121147723082
 C   -0.865059708578    0.077709820672   -0.377147723082
 C    0.016940291422    1.039709820672    0.114852276918
 C   -2.152059708578    0.474709820672   -0.767147723082
 C   -2.553059708578    1.817709820672   -0.667147723082
 C   -0.396059708578    2.366709820672    0.233852276918
 C   -1.662059708578    2.743709820672   -0.141147723082
 O    1.273940291422    0.718709820672    0.519852276918
 H   -0.558059708578   -0.952290179328   -0.455147723082
 H   -2.845059708578   -0.257290179328   -1.155147723082
 H    0.282940291422    3.107709820672    0.630852276918
 H    1.763940291422    1.486709820672    0.822852276918
 H   -4.364059708578    2.889709820672   -0.337147723082
 H   -4.561059708578    1.406709820672   -1.261147723082
 H   -1.962059708578    3.778709820672   -0.041147723082
 H   -3.902479708578    2.847979820672   -2.061596723082
 C    1.684940291422   -3.935290179328    0.349852276918
 C    2.306940291422   -2.556290179328    0.473852276918
 O    1.915940291422   -1.634290179328   -0.278147723082
 O    3.198940291422   -2.407290179328    1.357852276918
 H    1.049940291422   -4.084290179328    1.227852276918
 H    2.447940291422   -4.705290179328    0.412852276918
 H    1.036680291422   -4.057430179328   -0.530396723082
