21
-1 1 
 C    0.197667574384    1.348820778028    2.502300978131
 C    0.844667574384    2.437820778028    1.655300978131
 C    1.170667574384    0.171820778028    2.741300978131
 H   -0.093332425616    1.772820778028    3.465300978131
 H   -0.699332425616    0.979820778028    2.003300978131
 H    1.242667574384    1.967820778028    0.753300978131
 H    1.691667574384    2.853820778028    2.205300978131
 H    1.420667574384   -0.310179221972    1.797300978131
 H    2.098667574384    0.573820778028    3.156300978131
 H    0.180053574384    3.256030778028    1.340936978131
 H    0.752044574384   -0.539909221972    3.468066978131
 C   -1.078332425616   -0.079179221972   -0.855699021869
 C   -1.829332425616    0.465820778028   -2.057699021869
 C   -0.060332425616   -1.159179221972   -1.229699021869
 O   -0.046332425616   -1.629179221972   -2.389699021869
 O    0.723667574384   -1.555179221972   -0.341699021869
 H   -0.551332425616    0.751820778028   -0.383699021869
 H   -1.794332425616   -0.482179221972   -0.136699021869
 H   -2.453332425616   -0.323179221972   -2.482699021869
 H   -1.096332425616    0.760820778028   -2.807699021869
 H   -2.457983425616    1.342490778028   -1.842653021869
