19
0 1 
 C    0.551656954273   -1.732480420672    1.783887640995
 C   -0.571343045727   -2.676480420672    1.367887640995
 H    1.390656954273   -1.769480420672    1.085887640995
 H    0.179656954273   -0.705480420672    1.791887640995
 H    0.895656954273   -1.962480420672    2.794887640995
 H   -0.777343045727   -2.530480420672    0.310887640995
 H   -0.282064045727   -3.723496420672    1.541307640995
 H   -1.485388045727   -2.450317420672    1.936547640995
 C    0.163656954273    1.145519579328   -0.638112359005
 C   -0.077343045727    2.643519579328   -0.485112359005
 C   -0.048343045727    0.691519579328   -2.077112359005
 H    1.176656954273    0.896519579328   -0.318112359005
 H   -0.536343045727    0.615519579328    0.004887640995
 H    0.126656954273    2.911519579328    0.546887640995
 H   -1.130343045727    2.853519579328   -0.679112359005
 H   -1.064343045727    0.947519579328   -2.382112359005
 H    0.654656954273    1.186519579328   -2.743112359005
 H    0.539537954273    3.273339579328   -1.142972359005
 H    0.094630954273   -0.395225420672   -2.169542359005
