24
0 1 
 C    2.521377874314   -0.217889803347    0.875633350540
 C    0.035377874314   -0.189889803347    0.575633350540
 C    1.263377874314   -0.726889803347    0.207633350540
 C   -1.129622125686   -0.607889803347   -0.058366649460
 C    1.286377874314   -1.736889803347   -0.761366649460
 C   -1.080622125686   -1.569889803347   -1.054366649460
 C    0.130377874314   -2.158889803347   -1.391366649460
 O   -2.253622125686   -1.928889803347   -1.659366649460
 H   -0.022622125686    0.545110196653    1.364633350540
 H   -2.084622125686   -0.216889803347    0.249633350540
 H    2.990377874314   -1.043889803347    1.410633350540
 H    2.238377874314    0.527110196653    1.620633350540
 H    2.220377874314   -2.212889803347   -1.015366649460
 H    0.171377874314   -2.941889803347   -2.132366649460
 H   -2.044622125686   -2.452889803347   -2.454366649460
 H    3.255382874314    0.239880196653    0.196163350540
 C   -0.024622125686    3.471110196653    1.299633350540
 C   -0.434622125686    4.845110196653    1.805633350540
 H    0.958377874314    3.208110196653    1.694633350540
 H   -0.752622125686    2.735110196653    1.638633350540
 H    0.001377874314    3.450110196653    0.209633350540
 H   -1.383622125686    5.072110196653    1.314633350540
 H    0.288354874314    5.618870196653    1.507983350540
 H   -0.638878125686    4.892250196653    2.885473350540
