24
0 1 
 C    1.821345827792   -2.433714992186    0.245640402402
 C    1.403345827792    0.036285007814    0.475640402402
 C    1.969345827792   -1.005714992186   -0.262359597598
 C    1.507345827792    1.364285007814    0.048640402402
 C    2.271345827792    1.648285007814   -1.040359597598
 C    2.741345827792   -0.676714992186   -1.379359597598
 C    2.893345827792    0.659285007814   -1.742359597598
 H    0.843345827792   -0.189714992186    1.368640402402
 H    1.025345827792    2.156285007814    0.606640402402
 H    1.751345827792   -3.108714992186   -0.605359597598
 H    0.881345827792   -2.497714992186    0.794640402402
 H    2.380345827792    2.673285007814   -1.361359597598
 H    3.239345827792   -1.451714992186   -1.946359597598
 H    3.505345827792    0.917285007814   -2.592359597598
 H    2.634575827792   -2.750524992186    0.915187402402
 C   -2.332654172208    0.498285007814    0.927640402402
 C   -2.483654172208    0.325285007814    2.429640402402
 S   -3.732654172208   -0.107714992186   -0.064359597598
 H   -2.186654172208    1.558285007814    0.702640402402
 H   -1.434654172208   -0.030714992186    0.598640402402
 H   -2.597654172208   -0.732714992186    2.668640402402
 H   -3.284654172208    0.286285007814   -1.264359597598
 H   -3.343414172208    0.915055007814    2.780332402402
 H   -1.580974172208    0.724405007814    2.915311402402
