16
0 1 
 C    0.831493504408    1.709040961601    1.133804407002
 C    1.046493504408    2.468040961601   -0.162195592998
 H    1.653493504408    1.029040961601    1.348804407002
 H    0.816493504408    2.438040961601    1.938804407002
 H   -0.113506495592    1.168040961601    1.099804407002
 H    1.986493504408    3.016040961601   -0.079195592998
 H    0.244493504408    3.200040961601   -0.259195592998
 H    1.078803504408    1.832690961601   -1.059575592998
 C   -0.806506495592   -1.627959038399    0.094804407002
 C   -1.067506495592   -2.563959038399   -1.071195592998
 H    0.217493504408   -1.268959038399    0.087804407002
 H   -1.474506495592   -0.769959038399    0.034804407002
 H   -0.993506495592   -2.145959038399    1.035804407002
 H   -0.901506495592   -2.023959038399   -2.004195592998
 H   -2.122506495592   -2.831959038399   -1.039195592998
 H   -0.439056495592   -3.466449038399   -1.047525592998
