22
-1 1 
 C   -3.900961729838    0.774745860303   -1.520404921688
 C   -1.424961729838    0.326745860303   -0.930404921688
 C   -2.738961729838   -0.011254139697   -1.002404921688
 C   -1.650961729838   -1.715254139697   -0.140404921688
 N   -0.766961729838   -0.754254139697   -0.386404921688
 N   -2.857961729838   -1.296254139697   -0.510404921688
 H   -0.981961729838    1.255745860303   -1.260404921688
 H    0.238038270162   -0.824254139697   -0.210404921688
 H   -4.403961729838    0.180745860303   -2.284404921688
 H   -3.511961729838    1.676745860303   -1.996404921688
 H   -1.418961729838   -2.685254139697    0.283595078312
 H   -4.627980729838    1.062385860303   -0.746644921688
 C    1.872038270162    1.325745860303    0.568595078312
 C    2.585038270162    2.444745860303    1.316595078312
 C    2.503038270162   -0.065254139697    0.742595078312
 O    3.574038270162   -0.232254139697    1.377595078312
 O    1.910038270162   -1.024254139697    0.209595078312
 H    0.846038270162    1.283745860303    0.937595078312
 H    1.817038270162    1.579745860303   -0.491404921688
 H    2.892038270162    2.109745860303    2.308595078312
 H    1.856038270162    3.243745860303    1.461595078312
 H    3.437348270162    2.873415860303    0.769045078312
