26
0 1 
 C    0.231682696224   -3.287241212782    0.367505560767
 C   -1.266317303776   -3.557241212782    0.578505560767
 C    0.681682696224   -3.393241212782   -1.087494439233
 H    0.490682696224   -2.315241212782    0.777505560767
 H    0.823682696224   -4.031241212782    0.899505560767
 H   -1.500317303776   -4.523241212782    0.130505560767
 H    0.329682696224   -2.540241212782   -1.664494439233
 H    1.770682696224   -3.415241212782   -1.107494439233
 H    0.307682696224   -4.318241212782   -1.528494439233
 H   -1.488517303776   -3.608518212782    1.654605560767
 H   -1.872834303776   -2.781848212782    0.087685560767
 C    1.071682696224    1.369758787218    2.244505560767
 C    0.542682696224    0.518758787218   -0.065494439233
 C    0.460682696224    1.543758787218    0.878505560767
 C   -0.044317303776    0.658758787218   -1.326494439233
 C   -0.723317303776    1.824758787218   -1.652494439233
 C   -0.219317303776    2.712758787218    0.546505560767
 C   -0.812317303776    2.854758787218   -0.716494439233
 H    1.099682696224   -0.374241212782    0.164505560767
 H    0.038682696224   -0.137241212782   -2.054494439233
 H    1.321682696224    2.348758787218    2.642505560767
 H    2.003682696224    0.813758787218    2.143505560767
 H   -1.179317303776    1.934758787218   -2.627494439233
 H   -0.304317303776    3.512758787218    1.267505560767
 H   -1.340317303776    3.763758787218   -0.965494439233
 H    0.418362696224    0.840500787218    2.953765560767
