35
0 1 
 C   -0.014447246240    5.310692063837    0.276039122196
 C    0.124552753760    1.393692063837    2.038039122196
 C   -1.037447246240    1.832692063837    1.413039122196
 C    1.242552753760    2.222692063837    2.090039122196
 C   -1.080447246240    3.101692063837    0.843039122196
 C    1.189552753760    3.489692063837    1.518039122196
 C    0.033552753760    3.935692063837    0.883039122196
 O    0.177552753760    0.155692063837    2.602039122196
 H   -1.904447246240    1.192692063837    1.377039122196
 H   -0.671447246240   -0.343307936163    2.593039122196
 H    2.141552753760    1.878692063837    2.577039122196
 H   -1.991447246240    3.444692063837    0.370039122196
 H    2.060552753760    4.131692063837    1.567039122196
 H   -0.763447246240    5.339692063837   -0.517960877804
 H    0.956552753760    5.508692063837   -0.175960877804
 H   -0.229347246240    6.091692063837    1.020258122196
 C    1.899552753760   -1.272307936163   -0.108960877804
 C    2.228552753760   -2.175307936163    1.075039122196
 C    0.738552753760   -1.814307936163   -0.905960877804
 C   -0.562447246240   -1.674307936163   -0.432960877804
 C    0.951552753760   -2.504307936163   -2.096960877804
 C   -1.638447246240   -2.187307936163   -1.144960877804
 C   -0.119447246240   -3.021307936163   -2.819960877804
 C   -1.415447246240   -2.862307936163   -2.339960877804
 O   -2.472447246240   -3.360307936163   -3.030960877804
 H    1.647552753760   -0.274307936163    0.250039122196
 H    2.776552753760   -1.180307936163   -0.750960877804
 H    1.316552753760   -2.261307936163    1.668039122196
 H   -0.741447246240   -1.147307936163    0.493039122196
 H    1.961552753760   -2.643307936163   -2.459960877804
 H   -2.641447246240   -2.067307936163   -0.760960877804
 H    0.036552753760   -3.546307936163   -3.748960877804
 H   -3.291447246240   -3.292307936163   -2.538960877804
 H    3.013000753760   -1.745297936163    1.715142122196
 H    2.498882753760   -3.180009936163    0.717972122196
