23
0 1 
 C   -0.756943921188   -1.160505170504   -2.354326289578
 C   -0.943943921188   -0.455505170504    1.358673710422
 C   -1.212943921188    0.906494829496    1.407673710422
 C   -0.802943921188   -1.091505170504    0.130673710422
 C   -0.940943921188   -0.390505170504   -1.068326289578
 C   -1.342943921188    1.627494829496    0.220673710422
 C   -1.196943921188    0.984494829496   -1.016326289578
 H   -0.868943921188   -1.028505170504    2.268673710422
 H   -1.325943921188    1.404494829496    2.361673710422
 H   -0.596943921188   -2.152505170504    0.108673710422
 H   -1.548943921188    2.688494829496    0.257673710422
 H   -1.366943921188   -2.063505170504   -2.299326289578
 H    0.286056078812   -1.465505170504   -2.391326289578
 H   -1.258943921188    1.572494829496   -1.904326289578
 H   -0.981460521188   -0.633285170504   -3.293276289578
 C    2.808056078812    0.289494829496    1.250673710422
 C    3.456056078812   -0.505505170504    0.127673710422
 H    1.891056078812    0.767494829496    0.907673710422
 H    2.555056078812   -0.385505170504    2.068673710422
 H    3.504056078812    1.040494829496    1.619673710422
 H    2.721056078812   -1.207505170504   -0.260326289578
 H    4.267056078812   -1.075505170504    0.580673710422
 H    3.838756078812    0.103954829496   -0.704252289578
