30
0 1 
 C    4.410149425007   -0.141032044487    2.644319930072
 C    1.028149425007    0.025967955513    0.982319930072
 C    1.312149425007    0.745967955513   -0.157680069928
 C    2.029149425007   -0.267032044487    1.886319930072
 C    3.326149425007    0.138967955513    1.639319930072
 C    2.581149425007    1.165967955513   -0.420680069928
 C    3.603149425007    0.870967955513    0.487319930072
 H    0.011149425007   -0.251032044487    1.208319930072
 H    0.516149425007    0.996967955513   -0.845680069928
 H    1.789149425007   -0.798032044487    2.796319930072
 H    2.792149425007    1.748967955513   -1.305680069928
 H    5.364149425007   -0.212032044487    2.117319930072
 H    4.226149425007   -1.105032044487    3.112319930072
 H    4.606149425007    1.225967955513    0.297319930072
 H    4.484430425007    0.628914955513    3.426409930072
 C   -1.411850574993   -1.729032044487   -0.680680069928
 C   -2.190850574993   -2.967032044487   -1.106680069928
 C   -2.174850574993   -0.456032044487   -0.908680069928
 C   -2.045850574993    0.473967955513   -1.879680069928
 C   -3.702850574993    1.091967955513   -0.570680069928
 N   -3.234850574993   -0.063032044487   -0.114680069928
 N   -2.993850574993    1.434967955513   -1.626680069928
 H   -1.196850574993   -1.825032044487    0.382319930072
 H   -0.466850574993   -1.674032044487   -1.220680069928
 H   -3.114850574993   -3.016032044487   -0.528680069928
 H   -1.322850574993    0.464967955513   -2.685680069928
 H   -4.520850574993    1.663967955513   -0.145680069928
 H   -3.118850574993    2.303967955513   -2.141680069928
 H   -1.577042574993   -3.856335044487   -0.900816069928
 H   -2.462900574993   -2.899200044487   -2.170347069928
