16
0 1 
 C    0.567379893477   -1.484435504638    0.583420682091
 C    0.828379893477   -2.326435504638    1.836420682091
 H    0.878379893477   -2.021435504638   -0.311579317909
 H   -0.499620106523   -1.273435504638    0.506420682091
 H    1.121379893477   -0.549435504638    0.655420682091
 H    0.416379893477   -3.325435504638    1.684420682091
 H    0.269379893477   -1.867435504638    2.649420682091
 H    1.889751893477   -2.402401504638    2.115200682091
 C   -0.910620106523    1.641564495362   -0.530579317909
 C   -0.477620106523    2.173564495362   -1.892579317909
 H   -1.284620106523    2.459564495362    0.085420682091
 H   -1.698620106523    0.898564495362   -0.658579317909
 H   -0.062620106523    1.184564495362   -0.027579317909
 H   -0.252620106523    1.324564495362   -2.536579317909
 H    0.433112893477    2.778566495362   -1.772009317909
 H   -1.299818106523    2.743055495362   -2.350479317909
