29
0 1 
 C   -2.585634010997    0.753057011681   -0.339211024890
 C   -3.262634010997    0.470057011681   -1.697211024890
 C   -1.526634010997    1.857057011681   -0.478211024890
 C   -3.639634010997    1.191057011681    0.685788975110
 H   -2.103634010997   -0.158942988319    0.015788975110
 H   -3.753634010997    1.391057011681   -2.004211024890
 H   -1.985634010997    2.786057011681   -0.819211024890
 H   -1.037634010997    2.028057011681    0.479788975110
 H   -0.743634010997    1.563057011681   -1.174211024890
 H   -4.087634010997    2.137057011681    0.375788975110
 H   -4.428634010997    0.457057011681    0.734788975110
 H   -4.003662010997   -0.340462988319   -1.634514024890
 H   -2.509765510997    0.223227011681   -2.460273024890
 H   -3.250823810997    1.296967011681    1.709316975110
 C    1.695365989003   -0.122942988319   -2.105211024890
 C    0.657365989003   -1.159942988319   -0.036211024890
 C    1.720365989003   -0.475942988319   -0.631211024890
 C    0.678365989003   -1.450942988319    1.331788975110
 C    2.804365989003   -0.092942988319    0.162788975110
 C    1.788365989003   -1.117942988319    2.096788975110
 C    2.847365989003   -0.425942988319    1.518788975110
 H   -0.187634010997   -1.471942988319   -0.632211024890
 H   -0.143634010997   -1.985942988319    1.778788975110
 H    2.315365989003    0.763057011681   -2.250211024890
 H    0.684365989003    0.151057011681   -2.389211024890
 H    3.629365989003    0.449057011681   -0.278211024890
 H    1.820365989003   -1.379942988319    3.145788975110
 H    3.702365989003   -0.144942988319    2.118788975110
 H    2.069481989003   -0.912662988319   -2.773326024890
