18
-1 1 
 C    1.137951650206    1.329218587773   -1.905920974904
 C   -0.109048349794    1.197218587773   -1.057920974904
 O   -0.250048349794    1.939218587773   -0.053920974904
 O   -0.937048349794    0.320218587773   -1.398920974904
 H    0.845951650206    1.227218587773   -2.953920974904
 H    1.835951650206    0.521218587773   -1.678920974904
 H    1.626631650206    2.306578587773   -1.779600974904
 C   -0.168048349794   -1.347781412227    1.027079025096
 C    1.331951650206   -1.435781412227    1.291079025096
 C   -1.022048349794   -1.997781412227    2.099079025096
 H   -0.455048349794   -0.305781412227    1.009079025096
 H   -0.385048349794   -1.815781412227    0.066079025096
 H    1.853951650206   -0.963781412227    0.457079025096
 H    1.617951650206   -2.489781412227    1.308079025096
 H   -0.791048349794   -3.065781412227    2.119079025096
 H   -0.808048349794   -1.582781412227    3.085079025096
 H    1.654181650206   -0.962841412227    2.230489025096
 H   -2.095358349794   -1.878601412227    1.889809025096
