24
0 1 
 C    2.098620201443   -1.546440820690   -0.022092202416
 C    2.017620201443   -3.053440820690    0.250907797584
 H    1.757620201443   -0.998440820690    0.853907797584
 H    3.123620201443   -1.271440820690   -0.200092202416
 H    1.479620201443   -1.282440820690   -0.878092202416
 H    2.738620201443   -3.268440820690    1.038907797584
 H    1.010325201443   -3.327177820690    0.597928797584
 H    2.294034201443   -3.638022820690   -0.638956202416
 C    0.522620201443    2.180559179310   -2.274092202416
 C   -1.501379798557   -0.378440820690   -0.300092202416
 C   -1.096379798557   -0.091440820690    1.008907797584
 C   -0.977379798557    0.365559179310   -1.361092202416
 C   -0.052379798557    1.385559179310   -1.131092202416
 C   -0.186379798557    0.933559179310    1.247907797584
 C    0.328620201443    1.665559179310    0.180907797584
 O   -1.556379798557   -0.806440820690    2.067907797584
 H   -2.204379798557   -1.174440820690   -0.482092202416
 H   -1.280379798557    0.137559179310   -2.375092202416
 H    0.130620201443    1.158559179310    2.256907797584
 H   -1.181379798557   -0.489440820690    2.890907797584
 H    0.342620201443    1.657559179310   -3.215092202416
 H    1.603620201443    2.248559179310   -2.136092202416
 H    1.045620201443    2.453559179310    0.374907797584
 H    0.105194201443    3.196585679310   -2.332793202416
