24
0 1 
 C    0.365063607092    2.967163437500    1.193113393804
 C   -0.215936392908    0.711163437500    0.219113393804
 C    0.754063607092    1.593163437500    0.701113393804
 C    0.133063607092   -0.569836562500   -0.222886606196
 C    2.076063607092    1.165163437500    0.768113393804
 C    1.461063607092   -0.981836562500   -0.159886606196
 C    2.435063607092   -0.121836562500    0.327113393804
 O    1.824063607092   -2.232836562500   -0.549886606196
 H   -1.250936392908    1.023163437500    0.188113393804
 H   -0.612936392908   -1.253836562500   -0.598886606196
 H   -0.710936392908    3.106163437500    1.074113393804
 H    0.876063607092    3.708163437500    0.578113393804
 H    2.836063607092    1.831163437500    1.151113393804
 H    3.466063607092   -0.442836562500    0.377113393804
 H    2.775063607092   -2.367836562500   -0.558886606196
 H    0.642133607092    3.145893437500    2.242535393804
 C   -3.508936392908   -0.618836562500   -0.608886606196
 C   -4.567936392908   -1.400836562500   -1.360886606196
 H   -2.812936392908   -0.145836562500   -1.299886606196
 H   -3.987936392908    0.170163437500   -0.036886606196
 H   -2.951936392908   -1.279836562500    0.057113393804
 H   -5.233936392908   -0.691836562500   -1.853886606196
 H   -4.095806392908   -2.032726562500   -2.127570606196
 H   -5.165656392908   -1.999266562500   -0.657602606196
