20
0 1 
 C   -0.865866050739   -0.343479312409   -0.934220555807
 C   -1.084866050739   -0.371479312409   -2.467220555807
 C   -2.083866050739    0.149520687591   -0.151220555807
 O   -0.427866050739   -1.639479312409   -0.481220555807
 H   -0.057866050739    0.355520687591   -0.742220555807
 H   -1.105866050739    0.655520687591   -2.835220555807
 H   -2.896866050739   -0.576479312409   -0.194220555807
 H   -1.793866050739    0.302520687591    0.886779444193
 H   -2.425866050739    1.099520687591   -0.563220555807
 H   -1.126866050739   -2.027479312409    0.062779444193
 H   -2.016436050739   -0.906269312409   -2.704240555807
 H   -0.236466050739   -0.909349312409   -2.915450555807
 C    1.823133949261    0.615520687591    1.586779444193
 C    2.633133949261    1.720520687591    2.362779444193
 H    1.376133949261    1.056520687591    0.698779444193
 H    2.506133949261   -0.179479312409    1.281779444193
 H    1.054133949261    0.171520687591    2.217779444193
 H    3.001133949261    1.265520687591    3.282779444193
 H    1.977453949261    2.562004687591    2.631079444193
 H    3.514903949261    2.067861687591    1.804349444193
