20
0 1 
 C    2.439212170813   -1.192051086511   -0.837370120549
 C    1.333212170813   -1.074051086511    0.213629879451
 O    1.460212170813   -0.305051086511    1.163629879451
 N    0.244212170813   -1.804051086511    0.033629879451
 H    3.396212170813   -1.280051086511   -0.321370120549
 H    2.443212170813   -0.285051086511   -1.441370120549
 H   -0.502787829187   -1.757051086511    0.712629879451
 H    0.177212170813   -2.410051086511   -0.761370120549
 H    2.309252170813   -2.042881086511   -1.522350120549
 C   -1.420787829187    1.104948913489   -0.021370120549
 C   -2.501787829187    0.768948913489   -1.038370120549
 C   -1.489787829187    2.543948913489    0.511629879451
 H   -1.579787829187    0.410948913489    0.802629879451
 H   -0.439787829187    0.929948913489   -0.461370120549
 H   -3.477787829187    0.906948913489   -0.575370120549
 H   -1.441787829187    3.245948913489   -0.322370120549
 H   -2.398877829187   -0.277681086511   -1.360820120549
 H   -2.466115829187    1.413948913489   -1.928710120549
 H   -2.440999829187    2.677598913489    1.047659879451
 H   -0.619277829187    2.754468913489    1.150289879451
