31
0 1 
 C   -0.911775121594   -5.223878827698   -1.469145635049
 C    0.519224878406   -1.363878827698   -0.416145635049
 C    1.398224878406   -2.280878827698   -0.996145635049
 C   -0.801775121594   -1.707878827698   -0.217145635049
 C    0.923224878406   -3.549878827698   -1.353145635049
 C   -1.261775121594   -2.949878827698   -0.569145635049
 C   -0.408775121594   -3.872878827698   -1.140145635049
 H    0.872224878406   -0.381878827698   -0.129145635049
 H    2.435224878406   -2.017878827698   -1.156145635049
 H   -1.478775121594   -0.990878827698    0.225854364951
 H    1.596224878406   -4.273878827698   -1.791145635049
 H   -2.296775121594   -3.201878827698   -0.386145635049
 H   -0.506775121594   -5.524878827698   -2.431145635049
 H   -1.996775121594   -5.198878827698   -1.568145635049
 H   -0.648736121594   -5.966748827698   -0.701705635049
 C   -1.232775121594    1.888121172302   -1.772145635049
 C   -0.529775121594    2.228121172302   -0.484145635049
 C   -1.233775121594    2.222121172302    0.709854364951
 C    0.808224878406    2.623121172302   -0.459145635049
 C   -0.607775121594    2.547121172302    1.901854364951
 C    1.422224878406    2.962121172302    0.755854364951
 C    0.705224878406    2.907121172302    1.927854364951
 O    1.241224878406    3.222121172302    3.152854364951
 H   -1.687775121594    0.904121172302   -1.651145635049
 H   -0.507775121594    1.823121172302   -2.583145635049
 H   -2.285775121594    1.964121172302    0.714854364951
 H    1.378224878406    2.664121172302   -1.377145635049
 H   -1.168775121594    2.625121172302    2.808854364951
 H    2.457224878406    3.265121172302    0.777854364951
 H    0.585224878406    3.076121172302    3.864854364951
 H   -2.016241121594    2.620551172302   -2.016525635049
