30
0 1 
 C   -3.436887007443   -1.208574689019    1.184599723014
 C   -2.088887007443   -1.427574689019   -0.934400276986
 C   -2.303887007443   -1.813574689019    0.393599723014
 C   -1.049887007443   -1.986574689019   -1.681400276986
 C   -0.242887007443   -2.946574689019   -1.115400276986
 C   -1.469887007443   -2.782574689019    0.952599723014
 C   -0.446887007443   -3.345574689019    0.201599723014
 H   -2.726887007443   -0.680574689019   -1.387400276986
 H   -0.884887007443   -1.669574689019   -2.699400276986
 H   -3.756887007443   -1.912574689019    1.950599723014
 H   -4.272887007443   -1.100574689019    0.493599723014
 H    0.549112992557   -3.390574689019   -1.701400276986
 H   -1.631887007443   -3.118574689019    1.962599723014
 H    0.186112992557   -4.104574689019    0.640599723014
 H   -3.218077007443   -0.228244689019    1.633019723014
 C    2.623112992557    4.390425310981   -0.149400276986
 C    0.826112992557    0.542425310981    0.324599723014
 C    0.688112992557    1.492425310981    1.311599723014
 C    1.575112992557    0.838425310981   -0.823400276986
 C    1.263112992557    2.733425310981    1.157599723014
 C    2.168112992557    2.078425310981   -0.963400276986
 C    2.021112992557    3.035425310981    0.025599723014
 H    0.365112992557   -0.429574689019    0.435599723014
 H    0.110112992557    1.268425310981    2.193599723014
 H    1.683112992557    0.095425310981   -1.602400276986
 H    1.127112992557    3.479425310981    1.929599723014
 H    2.730112992557    2.300425310981   -1.857400276986
 H    1.976112992557    5.120425310981    0.337599723014
 H    2.631112992557    4.634425310981   -1.212400276986
 H    3.638212992557    4.499565310981    0.260059723014
