30
0 1 
 C   -5.146745353338    0.893494619399    1.218522634958
 C   -1.520745353338    0.216494619399    0.335522634958
 C   -0.912745353338    0.285494619399    1.581522634958
 C   -2.890745353338    0.412494619399    0.221522634958
 C   -3.664745353338    0.671494619399    1.348522634958
 C   -1.679745353338    0.546494619399    2.711522634958
 C   -3.049745353338    0.742494619399    2.593522634958
 H   -0.927745353338    0.017494619399   -0.547477365042
 H    0.155254646662    0.141494619399    1.670522634958
 H   -3.353745353338    0.358494619399   -0.753477365042
 H   -1.211745353338    0.592494619399    3.684522634958
 H   -5.647745353338    0.461494619399    2.085522634958
 H   -5.497745353338    0.359494619399    0.341522634958
 H   -3.640745353338    0.946494619399    3.475522634958
 H   -5.425305353338    1.953904619399    1.129492634958
 C    2.890254646662    0.229494619399   -3.740477365042
 C    1.624254646662   -1.451505380601   -0.580477365042
 C    2.625254646662   -1.129505380601    0.326522634958
 C    1.711254646662   -1.012505380601   -1.897477365042
 C    2.796254646662   -0.251505380601   -2.317477365042
 C    3.711254646662   -0.368505380601   -0.083477365042
 C    3.795254646662    0.069494619399   -1.400477365042
 H    0.773254646662   -2.035505380601   -0.258477365042
 H    2.560254646662   -1.470505380601    1.351522634958
 H    0.924254646662   -1.266505380601   -2.592477365042
 H    4.494254646662   -0.124505380601    0.617522634958
 H    3.143254646662    1.290494619399   -3.709477365042
 H    1.920254646662    0.140494619399   -4.232477365042
 H    4.641254646662    0.667494619399   -1.709477365042
 H    3.656845646662   -0.293535380601   -4.331047365042
