19
0 1 
 C   -1.620021097768    0.398750677978   -1.480665182283
 C   -2.110021097768    1.126750677978   -2.741665182283
 H   -1.848021097768   -0.665249322022   -1.556665182283
 H   -0.542021097768    0.530750677978   -1.375665182283
 H   -2.116021097768    0.810750677978   -0.601665182283
 H   -1.873021097768    2.188750677978   -2.663665182283
 H   -3.196232097768    1.022050677978   -2.880135182283
 H   -1.622779097768    0.702750677978   -3.632065182283
 C    0.745978902232   -0.529249322022    1.209334817717
 C    1.085978902232   -1.279249322022    2.493334817717
 C    1.953978902232    0.242750677978    0.600334817717
 H    0.373978902232   -1.259249322022    0.491334817717
 H   -0.051021097768    0.177750677978    1.445334817717
 H    1.313978902232   -0.503249322022    3.224334817717
 H    2.754978902232   -0.453249322022    0.350334817717
 H    1.642978902232    0.756750677978   -0.310665182283
 H    2.326978902232    0.977750677978    1.316334817717
 H    0.217826902232   -1.858449322022    2.840884817717
 H    1.952868902232   -1.948649322022    2.391394817717
