16
0 1 
 C   -0.671002702978    0.724911633990   -1.098168938391
 C   -1.290002702978    1.491911633990   -2.261168938391
 H    0.100997297022    0.040911633990   -1.453168938391
 H   -0.220002702978    1.425911633990   -0.395168938391
 H   -1.441002702978    0.151911633990   -0.579168938391
 H   -2.004002702978    2.208911633990   -1.854168938391
 H   -1.825311702978    0.808281633990   -2.936516938391
 H   -0.526299702978    2.065951633990   -2.806361938391
 C    0.907997297022   -1.728088366010    1.234831061609
 C    1.051997297022   -0.495088366010    2.121831061609
 H   -0.145002702978   -1.930088366010    1.033831061609
 H    1.400997297022   -1.545088366010    0.279831061609
 H    1.371997297022   -2.594088366010    1.711831061609
 H    0.484997297022    0.322911633990    1.684831061609
 H    0.703227297022   -0.671278366010    3.150091061609
 H    2.111441297022   -0.208598366010    2.195999061609
