17
0 1 
 C   -2.008630391819    0.458909225015    0.133202543306
 C   -3.488630391819    0.503909225015   -0.217797456694
 H   -1.481630391819    1.276909225015   -0.364797456694
 H   -1.875630391819    0.556909225015    1.212202543306
 H   -1.576630391819   -0.492090774985   -0.176797456694
 H   -3.968630391819   -0.368090774985    0.223202543306
 H   -3.631870391819    0.484479225015   -1.308257456694
 H   -3.940130391819    1.389409225015    0.253402543306
 C    1.564369608181    0.012909225015    0.430202543306
 C    2.804369608181    0.363909225015   -0.412797456694
 O    1.091369608181   -1.250090774985    0.114202543306
 H    1.847369608181    0.022909225015    1.482202543306
 H    0.785369608181    0.758909225015    0.281202543306
 H    3.249369608181    1.280909225015   -0.061797456694
 H    0.629369608181   -1.150090774985   -0.749797456694
 H    2.521009608181    0.563169225015   -1.456827456694
 H    3.558319608181   -0.434310774985   -0.346397456694
