23
0 1 
 C   -2.406219977129    1.541271701064    2.140452755916
 C   -0.704219977129   -0.738728298936   -0.362547244084
 C    0.469780022871   -1.038728298936    0.289452755916
 C   -1.637219977129    0.081271701064    0.237452755916
 C   -1.380219977129    0.658271701064    1.486452755916
 C    0.739780022871   -0.483728298936    1.524452755916
 C   -0.186219977129    0.372271701064    2.121452755916
 H   -0.913219977129   -1.183728298936   -1.324547244084
 H    1.167780022871   -1.734728298936   -0.149547244084
 H   -2.577219977129    0.274271701064   -0.259547244084
 H    1.660780022871   -0.730728298936    2.035452755916
 H   -3.039219977129    2.001271701064    1.379452755916
 H   -1.875219977129    2.335271701064    2.653452755916
 H    0.027780022871    0.799271701064    3.091452755916
 H   -3.030929977129    1.009221701064    2.873022755916
 C    1.576780022871   -0.235728298936   -3.396547244084
 C    3.077780022871   -0.254728298936   -3.233547244084
 H    1.303780022871   -0.411728298936   -4.437547244084
 H    1.132780022871   -1.036728298936   -2.806547244084
 H    1.170780022871    0.719271701064   -3.060547244084
 H    3.434780022871   -1.183728298936   -3.677547244084
 H    3.546233022871    0.590511701064   -3.759027244084
 H    3.348949022871   -0.274248298936   -2.167677244084
