30
0 1 
 C    1.061003160464    2.538204424219    0.636487555058
 C    1.826003160464    3.757204424219    0.080487555058
 C    1.804003160464    1.239204424219    0.316487555058
 C    0.872003160464    2.672204424219    2.153487555058
 H    0.082003160464    2.524204424219    0.170487555058
 H    2.790003160464    3.807204424219    0.581487555058
 H    2.801003160464    1.264204424219    0.751487555058
 H    1.269003160464    0.376204424219    0.705487555058
 H    1.888003160464    1.096204424219   -0.759512444942
 H    1.839003160464    2.548204424219    2.642487555058
 H    0.520003160464    3.662204424219    2.421487555058
 H    1.274813160464    4.692414424219    0.258187555058
 H    2.022393160464    3.642104424219   -0.995702444942
 H    0.172333160464    1.940004424219    2.582837555058
 C    0.154003160464   -4.094795575781    0.153487555058
 C   -1.189996839536   -0.098795575781   -0.697512444942
 C   -0.373996839536   -0.767795575781   -1.603512444942
 C   -1.569996839536   -0.720795575781    0.489487555058
 C    0.059003160464   -2.057795575781   -1.321512444942
 C   -1.127996839536   -2.010795575781    0.764487555058
 C   -0.302996839536   -2.686795575781   -0.133512444942
 O   -1.612996839536    1.163204424219   -0.977512444942
 H   -0.084996839536   -0.286795575781   -2.524512444942
 H   -1.305996839536    1.434204424219   -1.862512444942
 H   -2.200996839536   -0.200795575781    1.190487555058
 H    0.686003160464   -2.577795575781   -2.034512444942
 H   -1.400996839536   -2.487795575781    1.692487555058
 H    0.097003160464   -4.278795575781    1.224487555058
 H    1.194003160464   -4.204795575781   -0.157512444942
 H   -0.462736839536   -4.850109575781   -0.355562444942
