16
0 1 
 C   -1.834889578401    0.286070992645    0.653724181062
 C   -1.113889578401   -0.450929007355    1.766724181062
 H   -2.879889578401    0.430070992645    0.930724181062
 H   -1.409889578401    1.278070992645    0.502724181062
 H   -1.803889578401   -0.291929007355   -0.269275818938
 H   -0.092889578401   -0.680929007355    1.489724181062
 H   -1.630719578401   -1.400475007355    1.969824181062
 H   -1.065819578401    0.216222192645    2.639994181062
 C    0.973110421599   -0.065929007355   -0.666275818938
 C    1.971110421599    0.224070992645   -1.757275818938
 H    0.364110421599   -0.938929007355   -0.891275818938
 H    1.530110421599   -0.250929007355    0.249724181062
 H    0.370110421599    0.828070992645   -0.553275818938
 H    2.685110421599   -0.598929007355   -1.829275818938
 H    2.518110421599    1.119070992645   -1.477275818938
 H    1.469820421599    0.370580492645   -2.725385818938
