14
1 1 
 C    0.453272947988    1.450826165864   -1.916720967389
 O    0.771272947988    1.106826165864   -0.573720967389
 H    0.821272947988    1.938826165864   -0.041720967389
 H    0.418272947988    2.535826165864   -2.001720967389
 H    1.236352947988    1.052724165864   -2.578764967389
 H   -0.534927052012    1.039076165864   -2.169549967389
 C   -0.629727052012   -2.093173834136    1.182279032611
 N   -0.600727052012   -0.600173834136    1.245279032611
 H   -0.204727052012   -0.183173834136    0.403279032611
 H   -1.534727052012   -0.229173834136    1.383279032611
 H   -0.035727052012   -0.285173834136    2.027279032611
 H   -1.350727052012   -2.430173834136    0.428279032611
 H   -0.961727052012   -2.490173834136    2.148279032611
 H    0.353722947988   -2.527368834136    0.949261032611
