27
0 1 
 C   -2.959845020581    0.317470234104    1.175861423213
 C   -2.600845020581    1.769470234104    0.857861423213
 C   -1.912845020581   -0.397529765896    2.021861423213
 H   -3.919845020581    0.282470234104    1.692861423213
 H   -3.068845020581   -0.220529765896    0.232861423213
 H   -1.684845020581    1.770470234104    0.263861423213
 H   -0.938845020581   -0.298529765896    1.545861423213
 H   -1.868845020581    0.059470234104    3.010861423213
 H   -2.441565020581    2.338638234104    1.785591423213
 H   -3.388055020581    2.226632234104    0.240371423213
 H   -2.161085020581   -1.463375265896    2.132991423213
 C    2.413154979419    2.325470234104   -0.269138576787
 C   -0.180845020581   -0.270529765896   -1.262138576787
 C    0.347154979419   -1.421529765896   -0.690138576787
 C    0.489154979419    0.940470234104   -1.124138576787
 C    1.684154979419    1.014470234104   -0.414138576787
 C    1.544154979419   -1.361529765896    0.012861423213
 C    2.207154979419   -0.146529765896    0.145861423213
 O   -0.301845020581   -2.611529765896   -0.823138576787
 H   -1.116845020581   -0.321529765896   -1.802138576787
 H    0.064154979419    1.836470234104   -1.563138576787
 H    1.955154979419   -2.256529765896    0.457861423213
 H    0.178154979419   -3.340529765896   -0.413138576787
 H    2.914154979419    2.333470234104    0.696861423213
 H    1.694154979419    3.146470234104   -0.274138576787
 H    3.138154979419   -0.103529765896    0.700861423213
 H    3.164764979419    2.478963234104   -1.057498576787
