35
0 1 
 C    4.860337477673    1.954254838718    0.925835172545
 C    1.347337477673    1.143254838718   -0.101164827455
 C    2.576337477673    1.808254838718   -0.325164827455
 C    3.473337477673    1.447254838718    0.728835172545
 C    2.765337477673    0.645254838718    1.554835172545
 C    0.261337477673    1.293254838718   -0.958164827455
 C    0.424337477673    2.090254838718   -2.069164827455
 C    1.630337477673    2.730254838718   -2.320164827455
 C    2.705337477673    2.609254838718   -1.455164827455
 N    1.489337477673    0.453254838718    1.078835172545
 H   -0.684662522327    0.817254838718   -0.758164827455
 H   -0.399662522327    2.213254838718   -2.757164827455
 H    0.727337477673    0.120254838718    1.646835172545
 H    1.723337477673    3.354254838718   -3.199164827455
 H    3.152337477673    0.167254838718    2.434835172545
 H    3.628337477673    3.132254838718   -1.647164827455
 H    4.759337477673    2.940254838718    1.380835172545
 H    5.316337477673    2.107254838718   -0.052164827455
 H    5.537347477673    1.364034838718    1.560895172545
 C   -4.484662522327   -2.969745161282   -1.710164827455
 C   -1.354662522327   -1.648745161282   -0.021164827455
 C   -2.231662522327   -2.144745161282   -0.987164827455
 C   -1.801662522327   -1.463745161282    1.281835172545
 C   -3.536662522327   -2.459745161282   -0.659164827455
 C   -3.107662522327   -1.786745161282    1.629835172545
 C   -3.960662522327   -2.291745161282    0.652835172545
 O   -0.912662522327   -0.975745161282    2.189835172545
 H   -0.335662522327   -1.419745161282   -0.295164827455
 H   -1.880662522327   -2.278745161282   -2.003164827455
 H   -0.019662522327   -1.180745161282    1.923835172545
 H   -3.447662522327   -1.645745161282    2.645835172545
 H   -5.017662522327   -3.838745161282   -1.320164827455
 H   -3.909662522327   -3.296745161282   -2.576164827455
 H   -4.978662522327   -2.544745161282    0.919835172545
 H   -5.216364522327   -2.206605161282   -2.013854827455
