33
0 1 
 C   -3.905256353081   -0.423423816655   -0.395611382252
 C   -5.004256353081   -0.628423816655   -1.435611382252
 C   -3.460256353081    1.032576183345   -0.370611382252
 C   -4.396256353081   -0.874423816655    0.986388617748
 H   -3.054256353081   -1.041423816655   -0.672611382252
 H   -5.923256353081   -0.175423816655   -1.062611382252
 H   -4.305256353081    1.687576183345   -0.158611382252
 H   -2.716256353081    1.139576183345    0.409388617748
 H   -2.974256353081    1.329576183345   -1.299611382252
 H   -4.717256353081   -1.913423816655    0.966388617748
 H   -3.589256353081   -0.776423816655    1.711388617748
 H   -5.234256353081   -0.254423816655    1.305388617748
 H   -5.169555353081   -1.700223816655   -1.619780382252
 H   -4.730790353081   -0.108113816655   -2.365395782252
 C    4.653743646919    1.085576183345   -0.067611382252
 C    1.056743646919    0.043576183345   -0.389611382252
 C    2.251743646919    0.133576183345    0.366388617748
 C    3.243743646919    0.758576183345   -0.464611382252
 C    2.622743646919    1.050576183345   -1.641611382252
 C   -0.101256353081   -0.531423816655    0.114388617748
 C   -0.069256353081   -1.029423816655    1.402388617748
 C    1.097743646919   -0.957423816655    2.174388617748
 C    2.262743646919   -0.386423816655    1.664388617748
 N    1.318743646919    0.612576183345   -1.608611382252
 H   -0.984256353081   -0.586423816655   -0.496611382252
 H   -0.957256353081   -1.484423816655    1.822388617748
 H    0.646743646919    0.726576183345   -2.367611382252
 H    1.094743646919   -1.360423816655    3.179388617748
 H    3.094743646919    1.552576183345   -2.479611382252
 H    3.164743646919   -0.353423816655    2.258388617748
 H    5.208743646919    1.450576183345   -0.933611382252
 H    5.130743646919    0.169576183345    0.283388617748
 H    4.683893646919    1.837196183345    0.734980617748
