27
0 1 
 C   -2.685182061349    2.227426993905   -2.464475773697
 C   -1.832182061349   -1.254573006095   -2.039475773697
 C   -2.017182061349    0.919426993905   -2.242475773697
 C   -0.702182061349    0.631426993905   -2.055475773697
 N   -2.706182061349   -0.276573006095   -2.220475773697
 N   -0.613182061349   -0.728573006095   -1.944475773697
 H   -2.138182061349   -2.290573006095   -1.986475773697
 H    0.243817938651   -1.242573006095   -1.807475773697
 H    0.168817938651    1.268426993905   -1.994475773697
 H   -1.965182061349    3.006426993905   -2.236475773697
 H   -3.515182061349    2.279426993905   -1.758475773697
 H   -3.044522061349    2.348646993905   -3.497035773697
 C    3.836817938651   -0.424573006095    2.901524226303
 C   -0.177182061349   -0.101573006095    1.227524226303
 C    0.641817938651    1.025426993905    1.273524226303
 C    0.312817938651   -1.315573006095    1.687524226303
 C    1.957817938651    0.921426993905    1.786524226303
 C    1.616817938651   -1.414573006095    2.206524226303
 C    2.453817938651   -0.300573006095    2.266524226303
 H   -1.184182061349   -0.035573006095    0.834524226303
 H    0.258817938651    1.973426993905    0.915524226303
 H   -0.324182061349   -2.186573006095    1.642524226303
 H    2.592817938651    1.795426993905    1.818524226303
 H    1.984817938651   -2.364573006095    2.567524226303
 H    4.106817938651   -1.482573006095    2.886524226303
 H    3.738817938651   -0.107573006095    3.942524226303
 H    4.642487938651    0.124846993905    2.392564226303
