22
0 1 
 C   -1.128826534866   -0.315999205293   -0.338376465827
 C   -1.388826534866    0.305000794707   -1.719376465827
 C   -1.633826534866    0.646000794707    0.750623534173
 C   -1.834826534866   -1.671999205293   -0.230376465827
 H   -0.059826534866   -0.473999205293   -0.211376465827
 H   -2.452826534866    0.521000794707   -1.835376465827
 H   -2.706826534866    0.815000794707    0.645623534173
 H   -1.437826534866    0.235000794707    1.740623534173
 H   -1.110826534866    1.601000794707    0.702623534173
 H   -2.915826534866   -1.527999205293   -0.276376465827
 H   -1.543826534866   -2.308999205293   -1.064376465827
 H   -1.034266534866   -0.357289205293   -2.522896465827
 H   -0.805316534866    1.231040794707   -1.828786465827
 H   -1.587326534866   -2.236899205293    0.680461534173
 C    2.623173465134   -0.159999205293    0.563623534173
 C    3.212173465134    1.159000794707    0.927623534173
 H    3.380173465134   -0.939999205293    0.629623534173
 H    1.842173465134   -0.402999205293    1.286623534173
 H    2.178173465134   -0.165999205293   -0.429376465827
 H    2.407173465134    1.886000794707    1.032623534173
 H    3.885463465134    1.485730794707    0.121440534173
 H    3.758983465134    1.091810794707    1.879717534173
