23
0 1 
 C    2.817640019468    1.563897273281   -1.439730772795
 C    4.308640019468    1.855897273281   -1.281730772795
 H    2.656640019468    0.756897273281   -2.151730772795
 H    2.392640019468    1.270897273281   -0.485730772795
 H    2.299640019468    2.456897273281   -1.775730772795
 H    4.812640019468    0.943897273281   -0.971730772795
 H    4.389640019468    2.574897273281   -0.467730772795
 H    4.779400019468    2.244167273281   -2.196950772795
 C   -2.723359980532    1.294897273281    0.728269227205
 C    0.224640019468   -0.770102726719   -0.448730772795
 C   -0.675359980532    0.280897273281   -0.277730772795
 C    0.021640019468   -1.948102726719    0.224269227205
 C   -1.770359980532    0.143897273281    0.558269227205
 C   -1.051359980532   -2.093102726719    1.065269227205
 C   -1.965359980532   -1.050102726719    1.224269227205
 H    1.070640019468   -0.669102726719   -1.111730772795
 H   -0.507359980532    1.211897273281   -0.801730772795
 H    0.723640019468   -2.754102726719    0.085269227205
 H   -1.199359980532   -3.025102726719    1.594269227205
 H   -3.737359980532    0.911897273281    0.727269227205
 H   -2.630359980532    1.935897273281   -0.149730772795
 H   -2.815359980532   -1.165102726719    1.880269227205
 H   -2.551972980532    1.901897273281    1.629479227205
