30
0 1 
 C    1.828847666145   -1.936655136057   -0.489593816976
 C    2.347847666145   -3.239655136057    0.111406183024
 C    2.136847666145   -1.795655136057   -2.005593816976
 H    0.750847666145   -1.901655136057   -0.326593816976
 H    2.296847666145   -1.113655136057    0.049406183024
 H    3.431847666145   -3.281655136057    0.002406183024
 H    1.898847666145   -4.081655136057   -0.418593816976
 H    1.921847666145   -0.773655136057   -2.321593816976
 H    3.184847666145   -2.006655136057   -2.182593816976
 H    2.101997666145   -3.334265136057    1.179396183024
 H    1.535457666145   -2.480565136057   -2.621403816976
 C   -2.753152333855   -1.072655136057    1.430406183024
 C   -0.398152333855   -0.340655136057    2.092406183024
 C   -1.457152333855   -0.329655136057    1.246406183024
 C    0.161847666145    1.117344863943    0.458406183024
 C   -1.131152333855    0.599344863943    0.186406183024
 C    0.799847666145    2.050344863943   -0.371593816976
 C   -1.787152333855    1.057344863943   -0.974593816976
 C    0.138847666145    2.489344863943   -1.502593816976
 C   -1.142152333855    1.997344863943   -1.803593816976
 N    0.571847666145    0.526344863943    1.631406183024
 H   -0.415152333855   -0.971655136057    2.974406183024
 H    1.455847666145    0.711344863943    2.091406183024
 H   -2.523152333855   -2.004655136057    1.942406183024
 H   -3.134152333855   -1.303655136057    0.430406183024
 H    1.787847666145    2.405344863943   -0.107593816976
 H   -2.776152333855    0.701344863943   -1.250593816976
 H    0.609847666145    3.211344863943   -2.154593816976
 H   -1.655152333855    2.338344863943   -2.691593816976
 H   -3.476752333855   -0.525335136057    2.052366183024
