30
0 1 
 C    1.528659887061    0.810202612724    1.056574954200
 C    2.996659887061    0.805202612724    0.617574954200
 C    0.551659887061    0.077202612724    0.175574954200
 C    0.070659887061   -1.179797387276    0.369574954200
 C   -0.172340112939    0.607202612724   -0.956425045800
 C   -1.091340112939   -0.394797387276   -1.382425045800
 C   -0.151340112939    1.832202612724   -1.646425045800
 C   -1.965340112939   -0.207797387276   -2.457425045800
 C   -1.030340112939    2.023202612724   -2.727425045800
 C   -1.926340112939    1.009202612724   -3.124425045800
 N   -0.910340112939   -1.468797387276   -0.550425045800
 H    1.492659887061    0.382202612724    2.043574954200
 H    1.193659887061    1.844202612724    1.156574954200
 H    3.575659887061    1.225202612724    1.428574954200
 H    0.348659887061   -1.809797387276    1.201574954200
 H   -1.457340112939   -2.328797387276   -0.539425045800
 H    0.535659887061    2.609202612724   -1.350425045800
 H   -2.651340112939   -0.987797387276   -2.752425045800
 H   -1.020340112939    2.961202612724   -3.262425045800
 H   -2.594340112939    1.183202612724   -3.960425045800
 H    3.129149887061    1.424492612724   -0.281835045800
 H    3.382989887061   -0.213827387276    0.468144954200
 C    1.176659887061   -1.270797387276    4.046574954200
 C    0.228659887061   -2.084797387276    4.905574954200
 H    1.497659887061   -1.831797387276    3.170574954200
 H    0.618659887061   -0.391797387276    3.740574954200
 H    2.042659887061   -0.962797387276    4.632574954200
 H   -0.191340112939   -1.419797387276    5.660574954200
 H    0.756879887061   -2.920907387276    5.387144954200
 H   -0.581920112939   -2.482777387276    4.277434954200
