17
0 1 
 C   -0.906302535329    0.755674104966   -0.704282653893
 C   -1.625302535329    1.040674104966   -2.031282653893
 S    0.852697464671    0.403674104966   -0.954282653893
 H   -0.985302535329    1.623674104966   -0.047282653893
 H   -1.364302535329   -0.110325895034   -0.216282653893
 H   -1.507302535329    0.147674104966   -2.644282653893
 H    1.292697464671    0.825674104966    0.239717346107
 H   -1.188055535329    1.908384104966   -2.546932653893
 H   -2.710203535329    1.194939104966   -1.935407653893
 C   -0.116302535329   -1.767325895034    1.906717346107
 C    0.760697464671   -0.903325895034    2.791717346107
 H   -0.065302535329   -2.806325895034    2.227717346107
 H   -1.145302535329   -1.422325895034    1.987717346107
 H    0.201697464671   -1.705325895034    0.866717346107
 H    0.590697464671    0.134674104966    2.511717346107
 H    1.815432464671   -1.156923295034    2.609444346107
 H    0.485104464671   -1.029698895034    3.849109346107
