17
0 1 
 C   -1.012770506112   -0.086319409156   -2.268179885737
 C    0.050229493888   -1.165319409156   -2.194179885737
 H   -1.671770506112   -0.258319409156   -3.123179885737
 H   -1.608770506112   -0.081319409156   -1.355179885737
 H   -0.532770506112    0.885680590844   -2.378179885737
 H    0.679229493888   -0.955319409156   -1.334179885737
 H    0.681619493888   -1.135864409156   -3.094443885737
 H   -0.445370506112   -2.129073409156   -2.005618885737
 C    0.723229493888    1.649680590844    0.878820114263
 C    0.179229493888    0.278680590844    1.153820114263
 O   -1.013770506112    0.125680590844    1.397820114263
 N    1.036229493888   -0.725319409156    1.115820114263
 H    0.482229493888    1.897680590844   -0.147179885737
 H    1.812229493888    1.628680590844    0.953820114263
 H    0.665229493888   -1.653319409156    1.262820114263
 H    2.005229493888   -0.575319409156    0.879820114263
 H    0.339839493888    2.402075590844    1.583741114263
