16
0 1 
 C   -1.737505478318    0.085408074230   -0.804582901122
 C   -3.180505478318    0.467408074230   -0.817582901122
 H   -1.489505478318   -0.423591925770    0.126417098878
 H   -1.535505478318   -0.590591925770   -1.635582901122
 H   -1.112505478318    0.972408074230   -0.908582901122
 H   -3.789505478318   -0.432591925770   -0.737582901122
 H   -3.381505478318    0.911408074230   -1.791582901122
 H   -3.442852478318    1.165568074230   -0.009032901122
 C    1.823494521682    0.049408074230    0.522417098878
 C    3.096494521682   -0.592591925770    1.098417098878
 H    2.129494521682    0.801408074230   -0.181582901122
 H    1.203494521682   -0.703591925770    0.036417098878
 H    1.257494521682    0.521408074230    1.325417098878
 H    2.764494521682   -1.232591925770    1.912417098878
 H    3.790214521682    0.157278074230    1.506407098878
 H    3.582634521682   -1.261208925770    0.372727098878
