16
0 1 
 C   -0.817059506272    0.203958256918   -1.719205565432
 C   -1.550059506272   -0.643041743082   -2.776205565432
 H   -0.575059506272   -0.418041743082   -0.857205565432
 H    0.103940493728    0.610958256918   -2.139205565432
 H   -1.448059506272    1.032958256918   -1.399205565432
 H   -1.801059506272    0.022958256918   -3.601205565432
 H   -2.471763506272   -1.084481743082   -2.369275565432
 H   -0.867079506272   -1.420741743082   -3.148675565432
 C    0.717940493728    0.132958256918    1.623794434568
 C    1.641940493728    0.299958256918    2.874794434568
 H   -0.086059506272    0.864958256918    1.648794434568
 H    1.307940493728    0.301958256918    0.721794434568
 H    0.304940493728   -0.874041743082    1.567794434568
 H    2.411940493728   -0.468041743082    2.831794434568
 H    1.078730493728    0.218258256918    3.816134434568
 H    2.127770493728    1.286728256918    2.890624434568
