31
0 1 
 C    0.101230068268    1.361006216763    4.573079394481
 C    0.912230068268    2.137006216763    0.925079394481
 C    0.380230068268    2.235006216763    2.205079394481
 C    1.764230068268    1.088006216763    0.603079394481
 C    0.699230068268    1.295006216763    3.185079394481
 C    2.083230068268    0.135006216763    1.573079394481
 C    1.552230068268    0.254006216763    2.852079394481
 O    2.280230068268    0.979006216763   -0.658920605519
 H    0.656230068268    2.871006216763    0.177079394481
 H   -0.304769931732    3.042006216763    2.426079394481
 H    1.835230068268    1.587006216763   -1.271920605519
 H    2.728230068268   -0.692993783237    1.322079394481
 H    0.636230068268    0.674006216763    5.232079394481
 H   -0.916769931732    0.997006216763    4.491079394481
 H    1.790230068268   -0.501993783237    3.588079394481
 H    0.088941068268    2.357896216763    5.037909394481
 C   -0.410769931732   -1.343993783237   -4.395920605519
 C   -1.299769931732   -0.447993783237   -0.831920605519
 C   -2.229769931732   -1.422993783237   -0.520920605519
 C   -0.709769931732   -0.421993783237   -2.085920605519
 C   -1.039769931732   -1.380993783237   -3.032920605519
 C   -2.570769931732   -2.378993783237   -1.465920605519
 C   -1.981769931732   -2.351993783237   -2.718920605519
 H   -1.033769931732    0.294006216763   -0.092920605519
 H   -2.708769931732   -1.407993783237    0.446079394481
 H    0.023230068268    0.331006216763   -2.315920605519
 H   -3.300769931732   -3.139993783237   -1.225920605519
 H   -0.325769931732   -2.360993783237   -4.783920605519
 H    0.604230068268   -0.952993783237   -4.306920605519
 H   -2.249769931732   -3.104993783237   -3.446920605519
 H   -0.969919931732   -0.718463783237   -5.107300605519
