37
0 1 
 C    1.002350095741   -1.516594192270   -1.056651702601
 C    1.758350095741   -0.181594192270   -1.023651702601
 C    1.142350095741   -2.352594192270    0.187348297399
 C    0.428350095741   -2.034594192270    1.336348297399
 C    1.964350095741   -3.482594192270    0.196348297399
 C    0.542350095741   -2.830594192270    2.487348297399
 C    2.084350095741   -4.275594192270    1.344348297399
 C    1.363350095741   -3.950594192270    2.487348297399
 H   -0.056649904259   -1.315594192270   -1.221651702601
 H    1.355350095741   -2.100594192270   -1.908651702601
 H    1.295350095741    0.473405807730   -0.284651702601
 H   -0.226649904259   -1.176594192270    1.344348297399
 H    2.521350095741   -3.749594192270   -0.691651702601
 H   -0.026649904259   -2.580594192270    3.372348297399
 H    2.725350095741   -5.148594192270    1.337348297399
 H    1.431350095741   -4.574594192270    3.366348297399
 H    1.686360095741    0.275355807730   -2.021661702601
 H    2.819115095741   -0.324964192270   -0.770221702601
 C    0.779350095741    4.257405807730    0.210348297399
 C   -1.531649904259    1.320405807730   -0.166651702601
 C   -0.814649904259    2.406405807730   -0.736651702601
 C   -0.144649904259    3.084405807730    0.341348297399
 C   -0.475649904259    2.404405807730    1.487348297399
 C   -2.284649904259    0.447405807730   -0.933651702601
 C   -2.341649904259    0.661405807730   -2.298651702601
 C   -1.639649904259    1.718405807730   -2.896651702601
 C   -0.877649904259    2.598405807730   -2.128651702601
 N   -1.314649904259    1.357405807730    1.184348297399
 H   -2.788649904259   -0.392594192270   -0.481651702601
 H   -2.921649904259   -0.008594192270   -2.921651702601
 H   -1.715649904259    0.698405807730    1.857348297399
 H   -1.699649904259    1.857405807730   -3.968651702601
 H   -0.143649904259    2.662405807730    2.484348297399
 H   -0.358649904259    3.424405807730   -2.584651702601
 H    0.356350095741    5.114405807730    0.737348297399
 H    0.855350095741    4.517405807730   -0.844651702601
 H    1.787684095741    4.041235807730    0.593142297399
