19
0 1 
 C   -0.619912723852    1.113504759803    0.670469312736
 C    0.247087276148    1.446504759803   -0.515530687264
 C   -1.152912723852    2.443504759803    1.129469312736
 H   -0.001912723852    0.697504759803    1.459469312736
 H   -1.424912723852    0.427504759803    0.404469312736
 H    1.066087276148    0.731504759803   -0.603530687264
 H   -0.362912723852    1.464504759803   -1.418530687264
 H   -1.415912723852    2.419504759803    2.182469312736
 H   -2.009912723852    2.723504759803    0.529469312736
 H    0.609557276148    2.460374759803   -0.290390687264
 H   -0.341652723852    3.157794759803    0.925389312736
 C    0.047087276148   -2.478495240197   -0.310530687264
 C    1.431087276148   -2.469495240197   -0.933530687264
 H   -0.088912723852   -3.353495240197    0.323469312736
 H   -0.068912723852   -1.594495240197    0.311469312736
 H   -0.712912723852   -2.466495240197   -1.090530687264
 H    2.162087276148   -2.487495240197   -0.124530687264
 H    1.547087276148   -1.531495240197   -1.468530687264
 H    1.609467276148   -3.309834240197   -1.620560687264
