16
0 1 
 C   -0.857733016420    0.089214728056    1.819758156373
 C   -1.484733016420   -1.280785271944    2.034758156373
 H    0.230266983580    0.016214728056    1.835758156373
 H   -1.179733016420    0.493214728056    0.860758156373
 H   -1.189733016420    0.769214728056    2.601758156373
 H   -2.570733016420   -1.166785271944    2.003758156373
 H   -1.189233016420   -1.669995271944    3.020258156373
 H   -1.183763016420   -1.980895271944    1.241458156373
 C    0.517266983580    0.364214728056   -1.595241843627
 C    1.829266983580    0.826214728056   -2.257241843627
 H    0.090266983580    1.177214728056   -1.007241843627
 H   -0.195733016420    0.066214728056   -2.364241843627
 H    0.714266983580   -0.490785271944   -0.948241843627
 H    2.169266983580    0.029214728056   -2.920241843627
 H    2.604456983580    1.031074728056   -1.504141843627
 H    1.651966983580    1.739684728056   -2.843841843627
