20
0 1 
 C    2.980185962119    0.415798856773    1.912050807390
 C    2.120185962119    0.528798856773    0.681050807390
 O    1.251185962119   -0.351201143227    0.435050807390
 O    2.410185962119    1.458798856773   -0.094949192610
 H    3.241185962119    1.404798856773    2.293050807390
 H    3.900185962119   -0.088201143227    1.613050807390
 H    2.469225962119   -0.160201143227    2.697640807390
 C   -1.155814037881   -0.324201143227   -2.497949192610
 C   -1.898814037881   -0.420201143227   -0.115949192610
 N   -0.961814037881   -0.373201143227   -1.041949192610
 N   -3.201814037881   -0.389201143227   -0.408949192610
 N   -1.485814037881   -0.515201143227    1.124050807390
 H   -0.002814037881   -0.392201143227   -0.697949192610
 H   -3.511814037881   -0.372201143227   -1.371949192610
 H   -3.882814037881   -0.420201143227    0.333050807390
 H   -0.478814037881   -0.571201143227    1.255050807390
 H   -2.146814037881   -0.621201143227    1.885050807390
 H   -2.195814037881   -0.156201143227   -2.774949192610
 H   -0.854814037881   -1.288201143227   -2.912949192610
 H   -0.508523037881    0.454408856773   -2.927799192610
