21
0 1 
 C   -2.463761592292   -0.165797727932    1.679098547781
 C   -2.364761592292   -0.481797727932    0.199098547781
 O   -2.875761592292    0.240202272068   -0.661901452219
 N   -1.689761592292   -1.591797727932   -0.092901452219
 H   -2.124761592292    0.857202272068    1.823098547781
 H   -1.755761592292   -0.806797727932    2.200098547781
 H   -1.618761592292   -1.867797727932   -1.060901452219
 H   -1.414761592292   -2.230797727932    0.647098547781
 H   -3.479081592292   -0.252804727932    2.093278547781
 C    1.027238407708    1.024202272068    0.077098547781
 C    1.343238407708    1.863202272068    1.296098547781
 C    1.854238407708   -0.620797727932   -1.860901452219
 S    2.401238407708   -0.085797727932   -0.256901452219
 H    0.124238407708    0.445202272068    0.251098547781
 H    0.875238407708    1.673202272068   -0.784901452219
 H    2.319238407708    2.332202272068    1.168098547781
 H    1.404238407708    1.191202272068    2.153098547781
 H    1.570238407708    0.219202272068   -2.482901452219
 H    2.656238407708   -1.170797727932   -2.352901452219
 H    0.991238407708   -1.276797727932   -1.747901452219
 H    0.583978407708    2.636932272068    1.482838547781
