16
-1 1 
 C   -0.835599248577    2.614731233711    0.022989180818
 C   -0.125599248577    2.064731233711   -1.197010819182
 O   -0.065599248577    2.713731233711   -2.234010819182
 N    0.407400751423    0.858731233711   -1.096010819182
 H    0.860400751423    0.482731233711   -1.910010819182
 H    0.425400751423    0.341731233711   -0.224010819182
 H   -0.645599248577    1.954731233711    0.868989180818
 H   -1.907599248577    2.603731233711   -0.170010819182
 H   -0.507889248577    3.632841233711    0.280019180818
 C   -0.545599248577   -2.902268766289    0.184989180818
 C    0.194400751423   -2.000268766289    1.177989180818
 O    1.171400751423   -1.324268766289    0.776989180818
 O   -0.221599248577   -1.954268766289    2.358989180818
 H   -1.477599248577   -2.403268766289   -0.088010819182
 H   -0.828599248577   -3.846268766289    0.651989180818
 H    0.014470751423   -3.077738766289   -0.745350819182
