21
1 1 
 C    0.497072423369   -1.884137128765    1.634252093682
 C    0.998072423369   -0.352137128765   -0.274747906318
 N    0.419072423369   -1.431137128765    0.235252093682
 N    1.722072423369    0.467862871235    0.451252093682
 N    0.865072423369   -0.113137128765   -1.553747906318
 H   -0.064927576631   -2.027137128765   -0.432747906318
 H    1.831072423369    0.315862871235    1.441252093682
 H    2.152072423369    1.274862871235    0.021252093682
 H    0.305072423369   -0.722137128765   -2.136747906318
 H    1.323072423369    0.699862871235   -1.984747906318
 H    1.414072423369   -1.532137128765    2.111252093682
 H    0.527072423369   -2.976137128765    1.649252093682
 H   -0.373737576631   -1.547997128765    2.216227193682
 C   -1.962927576631    2.025862871235    0.346252093682
 C   -2.508927576631    1.203862871235   -0.817747906318
 H   -2.429927576631    3.012862871235    0.360252093682
 H   -2.191927576631    1.514862871235    1.283252093682
 H   -0.880927576631    2.127862871235    0.259252093682
 H   -2.051927576631    0.215862871235   -0.780747906318
 H   -2.284387576631    1.678202871235   -1.784484906318
 H   -3.600927576631    1.092482871235   -0.746090906318
