27
0 1 
 C   -2.099559197886    0.333704965058    2.396411637048
 C   -1.853559197886    1.412704965058    3.496411637048
 H   -3.168559197886    0.200704965058    2.225411637048
 H   -1.636559197886    0.640704965058    1.461411637048
 H   -1.645559197886   -0.618295034942    2.670411637048
 H   -0.782559197886    1.397704965058    3.715411637048
 H   -2.378119197886    1.178534965058    4.434501637048
 H   -2.112199197886    2.428634965058    3.163261637048
 C   -0.957559197886   -2.792295034942   -0.676588362952
 C   -1.599559197886   -0.413295034942   -1.293588362952
 C   -0.721559197886   -1.336295034942   -0.845588362952
 C    0.299440802114    0.717704965058   -0.900588362952
 C    0.507440802114   -0.635295034942   -0.564588362952
 C    1.286440802114    1.679704965058   -0.741588362952
 C    1.766440802114   -1.033295034942   -0.107588362952
 C    2.508440802114    1.264704965058   -0.272588362952
 C    2.753440802114   -0.074295034942    0.046411637048
 N   -0.995559197886    0.817704965058   -1.321588362952
 H   -2.621559197886   -0.597295034942   -1.598588362952
 H   -1.465559197886    1.683704965058   -1.602588362952
 H   -0.821559197886   -3.034295034942    0.377411637048
 H   -0.187559197886   -3.319295034942   -1.240588362952
 H    1.098440802114    2.712704965058   -0.994588362952
 H    1.955440802114   -2.069295034942    0.132411637048
 H    3.304440802114    1.987704965058   -0.156588362952
 H    3.734440802114   -0.368295034942    0.396411637048
 H   -1.942429197886   -3.151805034942   -1.009438362952
