20
0 1 
 C    2.889552982609    1.816608169999   -1.631500827703
 C    2.149552982609    1.118608169999   -0.492500827703
 O    1.044552982609    0.620608169999   -0.779500827703
 O    2.656552982609    1.063608169999    0.657499172297
 H    2.194552982609    2.478608169999   -2.150500827703
 H    3.207552982609    1.054608169999   -2.345500827703
 H    3.765342982609    2.404598169999   -1.319650827703
 C   -1.452447017391    0.381608169999    1.939499172297
 C   -1.800447017391   -1.239391830001    0.088499172297
 N   -1.178447017391   -0.212391830001    0.627499172297
 N   -2.810447017391   -1.832391830001    0.698499172297
 N   -1.427447017391   -1.661391830001   -1.096500827703
 H   -0.376447017391    0.153608169999    0.110499172297
 H   -0.528447017391    0.841608169999    2.296499172297
 H   -1.708447017391   -0.396391830001    2.661499172297
 H   -3.127447017391   -1.497391830001    1.592499172297
 H   -3.300447017391   -2.592391830001    0.225499172297
 H   -0.655447017391   -1.198391830001   -1.550500827703
 H   -1.984447017391   -2.371391830001   -1.576500827703
 H   -2.237137017391    1.152458169999    1.946789172297
