17
0 1 
 C    0.921878939755    1.297171747485    1.667901984616
 C    1.333878939755    0.137171747485    2.565901984616
 H    1.046878939755    1.049171747485    0.618901984616
 H   -0.119121060245    1.542171747485    1.858901984616
 H    1.531878939755    2.171171747485    1.895901984616
 H    0.660878939755   -0.699828252515    2.379901984616
 H    1.171878939755    0.452171747485    3.594901984616
 H    2.370795939755   -0.202978252515    2.427693984616
 C   -0.784121060245    0.093171747485   -1.480098015384
 C   -1.962121060245   -0.867828252515   -1.394098015384
 O    0.426878939755   -0.587828252515   -1.232098015384
 H   -0.760121060245    0.569171747485   -2.457098015384
 H   -0.903121060245    0.868171747485   -0.723098015384
 H   -1.893121060245   -1.574828252515   -2.219098015384
 H    0.777878939755   -0.948828252515   -2.069098015384
 H   -2.906352060245   -0.311108252515   -1.486255015384
 H   -1.913121060245   -1.439978252515   -0.455886015384
