16
0 1 
 C    0.336522922862    0.776392695372    1.803721228927
 C   -1.062477077138    1.113392695372    2.314721228927
 H    0.702522922862    1.543392695372    1.121721228927
 H    1.013522922862    0.696392695372    2.644721228927
 H    0.320522922862   -0.191607304628    1.307721228927
 H   -1.399477077138    0.300392695372    2.959721228927
 H   -1.763507077138    1.222232695372    1.474059228927
 H   -1.027707077138    2.045292695372    2.898123228927
 C    0.178522922862   -0.472607304628   -1.487278771073
 C    0.546522922862   -1.407607304628   -2.640278771073
 H   -0.579477077138    0.244392695372   -1.799278771073
 H   -0.236477077138   -1.069607304628   -0.679278771073
 H    1.053522922862    0.046392695372   -1.096278771073
 H    1.316522922862   -2.087607304628   -2.279278771073
 H    0.939172922862   -0.857887304628   -3.508400771073
 H   -0.328327077138   -2.005737304628   -2.935019771073
