19
-1 1 
 C    4.096321572050    1.046182144027   -0.147446015903
 C    0.750321572050    1.201182144027    1.267553984097
 C    1.664321572050    0.178182144027   -0.452446015903
 C    2.637321572050    0.895182144027    0.174553984097
 N    0.497321572050    0.391182144027    0.244553984097
 N    2.039321572050    1.530182144027    1.244553984097
 H   -0.431678427950    0.052182144027   -0.004446015903
 H    0.016321572050    1.560182144027    1.982553984097
 H    1.790321572050   -0.456817855973   -1.318446015903
 H    4.654321572050    0.271182144027    0.377553984097
 H    4.431321572050    2.014182144027    0.228553984097
 H    4.321411572050    0.984139144027   -1.222386015903
 C   -1.869678427950   -2.172817855973   -1.138446015903
 C   -2.765678427950   -1.152817855973   -0.488446015903
 O   -2.434678427950    0.045182144027   -0.578446015903
 O   -3.793678427950   -1.543817855973    0.105553984097
 H   -2.116678427950   -3.170817855973   -0.772446015903
 H   -0.834678427950   -1.944817855973   -0.878446015903
 H   -1.961805427950   -2.162657855973   -2.234536015903
