22
1 1 
 C    0.232337612087   -2.430595427218   -2.910088073581
 C    0.756337612087   -2.011595427218   -1.558088073581
 O    1.934337612087   -2.230595427218   -1.261088073581
 N   -0.097662387913   -1.440595427218   -0.710088073581
 H    0.196337612087   -1.628595427218    0.248911926419
 H   -1.058662387913   -1.529595427218   -0.996088073581
 H    0.438337612087   -3.490595427218   -3.065088073581
 H    0.770337612087   -1.845595427218   -3.655088073581
 H   -0.849042387913   -2.249637427218   -2.998750073581
 C   -1.338662387913    1.758404572782   -0.617088073581
 C   -0.363662387913    1.586404572782    1.726911926419
 N    0.135337612087    0.373404572782    1.540911926419
 N   -1.016662387913    2.243404572782    0.760911926419
 N   -0.233662387913    2.147404572782    2.924911926419
 H    0.437337612087    0.173404572782    0.597911926419
 H    0.601337612087   -0.082595427218    2.317911926419
 H   -1.328662387913    3.191404572782    0.998911926419
 H   -0.482662387913    3.123404572782    3.030911926419
 H    0.258337612087    1.678404572782    3.671911926419
 H   -2.335662387913    2.120404572782   -0.883088073581
 H   -1.371662387913    0.679404572782   -0.661088073581
 H   -0.628732387913    2.148174572782   -1.361458073581
