20
0 1 
 C    3.335411415876   -0.864982776869    1.368696427679
 C    2.129411415876   -0.419982776869    0.562696427679
 O    1.286411415876   -1.280982776869    0.229696427679
 O    2.008411415876    0.790017223131    0.272696427679
 H    3.978411415876   -0.011982776869    1.591696427679
 H    3.913411415876   -1.571982776869    0.770696427679
 H    3.039851415876   -1.356622776869    2.307276427679
 C   -2.505588584124   -1.271982776869    0.360696427679
 C   -1.549588584124    0.748017223131   -0.694303572321
 N   -1.401588584124   -0.413982776869   -0.078303572321
 N   -0.489588584124    1.448017223131   -1.034303572321
 N   -2.756588584124    1.213017223131   -0.963303572321
 H   -0.442588584124   -0.741982776869    0.060696427679
 H   -2.893588584124   -1.849982776869   -0.482303572321
 H   -3.312588584124   -0.656982776869    0.764696427679
 H    0.418411415876    1.146017223131   -0.670303572321
 H   -0.580588584124    2.350017223131   -1.465303572321
 H   -3.568588584124    0.655017223131   -0.767303572321
 H   -2.864588584124    2.102017223131   -1.426303572321
 H   -2.185507584124   -1.954242776869    1.161986427679
