26
0 1 
 C    0.530124996521    0.250566441293    0.114790591012
 C    2.007124996521    0.477566441293    0.265790591012
 C    1.689124996521   -1.883433558707    0.162790591012
 C   -2.038875003479   -1.065433558707    0.511790591012
 C   -0.759875003479   -1.891433558707    0.368790591012
 O   -0.793875003479   -3.123433558707    0.454790591012
 N    0.383124996521   -1.215433558707    0.223790591012
 H   -0.009875003479    0.780566441293    0.899790591012
 H    0.204124996521    0.573566441293   -0.875209408988
 H    2.255124996521    0.582566441293    1.322790591012
 H    2.319124996521    1.363566441293   -0.288209408988
 H    1.678124996521   -2.694433558707   -0.568209408988
 H   -1.882875003479   -0.097433558707    0.037790591012
 H    2.470414996521   -0.435282558707   -0.136787408988
 H    2.380004996521   -1.092415558707   -0.164279408988
 H    1.970314996521   -2.271883558707    1.152758591012
 H   -2.875325003479   -1.583668558707    0.020073591012
 H   -2.249895003479   -0.903219558707    1.579103591012
 C   -0.672875003479    3.321566441293   -1.080209408988
 C   -0.405875003479    4.812566441293   -0.953209408988
 H   -1.634875003479    3.153566441293   -1.567209408988
 H    0.116124996521    2.860566441293   -1.676209408988
 H   -0.686875003479    2.866566441293   -0.091209408988
 H    0.573124996521    4.913566441293   -0.488209408988
 H   -1.156525003479    5.261236441293   -0.285962408988
 H   -0.348135003479    5.292536441293   -1.941288408988
