27
0 1 
 C    2.785635971260   -0.253423630589    2.261592471352
 C    0.165635971260   -1.458423630589   -0.177407528648
 C    1.084635971260   -0.456423630589    0.248592471352
 C    1.808635971260   -0.986423630589    1.380592471352
 C    1.327635971260   -2.243423630589    1.574592471352
 C   -0.669364028740   -0.054423630589   -1.919407528648
 C   -0.708364028740   -1.271423630589   -1.252407528648
 C    0.226635971260    0.959576369411   -1.522407528648
 C    1.105635971260    0.768576369411   -0.441407528648
 N    0.346635971260   -2.532423630589    0.654592471352
 H   -1.337364028740    0.119576369411   -2.755407528648
 H   -1.394364028740   -2.051423630589   -1.547407528648
 H    0.236635971260    1.897576369411   -2.057407528648
 H    1.792635971260    1.545576369411   -0.145407528648
 H   -0.200364028740   -3.392423630589    0.665592471352
 H    1.605635971260   -2.873423630589    2.406592471352
 H    2.749635971260   -0.681423630589    3.248592471352
 H    2.450635971260    0.780576369411    2.361592471352
 H    3.839515971260   -0.257013630589    1.946432471352
 C   -3.003364028740    2.653576369411   -0.589407528648
 C   -3.669364028740    4.027576369411   -0.419407528648
 H   -3.672364028740    1.968576369411   -1.110407528648
 H   -2.075364028740    2.754576369411   -1.151407528648
 H   -2.762364028740    2.230576369411    0.385592471352
 H   -3.097364028740    4.607576369411    0.306592471352
 H   -4.705444028740    3.910086369411   -0.069067528648
 H   -3.651634028740    4.560336369411   -1.381617528648
