18
-1 1 
 C    0.699853125606   -0.911502026062    1.504840903692
 C    1.373853125606   -2.110502026062    2.092840903692
 C   -0.268146874394   -0.442502026062    2.615840903692
 H    0.165853125606   -1.221502026062    0.606840903692
 H    1.418853125606   -0.131502026062    1.259840903692
 H    1.788853125606   -2.767502026062    1.333840903692
 H    2.170853125606   -1.782502026062    2.761840903692
 H    0.180853125606    0.366497973938    3.193840903692
 H    0.586073125606   -2.600712026062    2.683680903692
 H   -0.400336874394   -1.336092026062    3.243550903692
 H   -1.242286874394   -0.145052026062    2.200420903692
 C   -1.688146874394    1.561497973938   -1.360159096308
 C   -0.368146874394    0.812497973938   -1.569159096308
 O    0.694853125606    1.493497973938   -1.385159096308
 O   -0.421146874394   -0.399502026062   -1.923159096308
 H   -1.551146874394    2.292497973938   -0.561159096308
 H   -2.468146874394    0.863497973938   -1.048159096308
 H   -2.007886874394    2.084377973938   -2.273589096308
