16
0 1 
 C   -1.305878704685   -1.029193812416    1.013601815286
 C   -2.103878704685   -1.650193812416   -0.132398184714
 H   -0.239878704685   -1.159193812416    0.836601815286
 H   -1.534878704685    0.035806187584    1.086601815286
 H   -1.557878704685   -1.487193812416    1.967601815286
 H   -3.160878704685   -1.588193812416    0.116601815286
 H   -1.827535704685   -2.705582812416   -0.273069184714
 H   -1.936860704685   -1.083627812416   -1.060357184714
 C    1.008121295315    1.405806187584   -0.740398184714
 C    2.405121295315    1.269806187584   -0.146398184714
 H    0.964121295315    0.922806187584   -1.718398184714
 H    0.284121295315    0.946806187584   -0.074398184714
 H    0.731121295315    2.454806187584   -0.849398184714
 H    2.429121295315    1.736806187584    0.832601815286
 H    3.148990295315    1.763326187584   -0.789123184714
 H    2.658938295315    0.208386187584   -0.008673184714
