23
0 1 
 C    1.608985741006   -2.309501470367   -1.151344005946
 C    0.927985741006    1.074498529633    0.423655994054
 C    0.204985741006    0.690498529633    1.539655994054
 C    1.363985741006    0.091498529633   -0.446344005946
 C    1.132985741006   -1.261501470367   -0.176344005946
 C   -0.026014258994   -0.623501470367    1.853655994054
 C    0.433985741006   -1.610501470367    0.978655994054
 H    1.104985741006    2.119498529633    0.209655994054
 H   -0.179014258994    1.455498529633    2.199655994054
 H    1.898985741006    0.381498529633   -1.341344005946
 H   -0.573014258994   -0.890501470367    2.746655994054
 H    2.182985741006   -3.058501470367   -0.602344005946
 H    2.268985741006   -1.857501470367   -1.892344005946
 H    0.244985741006   -2.652501470367    1.203655994054
 H    0.765058741006   -2.801553470367   -1.656985005946
 C   -1.988014258994    2.351498529633   -1.370344005946
 C   -3.044014258994    1.295498529633   -1.101344005946
 H   -2.457014258994    3.327498529633   -1.487344005946
 H   -1.291014258994    2.392498529633   -0.536344005946
 H   -1.439014258994    2.101498529633   -2.277344005946
 H   -2.538014258994    0.335498529633   -1.061344005946
 H   -3.774901258994    1.292626529633   -1.923412005946
 H   -3.535172258994    1.444509529633   -0.128431005946
