19
0 1 
 C   -0.407642983312   -0.782374507006    0.926732884744
 C    0.086357016688   -0.053374507006    2.172732884744
 C   -1.760642983312   -1.285374507006    1.284732884744
 H    0.249357016688   -1.622374507006    0.700732884744
 H   -0.464642983312   -0.106374507006    0.075732884744
 H    1.160357016688   -0.178374507006    2.299732884744
 H   -0.172642983312    0.997625492994    2.085732884744
 H   -2.111642983312   -2.091374507006    0.662732884744
 H   -2.462642983312   -0.468374507006    1.191732884744
 H   -0.481382983312   -0.514284507006    2.994462884744
 H   -1.656722983312   -1.565374507006    2.343412884744
 C    1.122357016688    0.292625492994   -2.212267115256
 C    0.943357016688    1.779625492994   -2.121267115256
 H    1.462357016688   -0.090374507006   -1.253267115256
 H    0.174357016688   -0.181374507006   -2.456267115256
 H    1.855357016688    0.044625492994   -2.981267115256
 H    0.178357016688    1.996625492994   -1.377267115256
 H    1.892887016688    2.229325492994   -1.795448115256
 H    0.569717016688    2.131995492994   -3.094009115256
