23
0 1 
 C    0.329822944848   -2.339324172633    0.805114799604
 C   -0.478177055152   -3.233324172633   -0.140885200396
 C    1.838822944848   -2.568324172633    0.760114799604
 H    0.195822944848   -1.305324172633    0.575114799604
 H   -0.011177055152   -2.510324172633    1.829114799604
 H   -0.228177055152   -4.275324172633    0.070114799604
 H    2.049822944848   -3.613324172633    0.987114799604
 H    2.216822944848   -2.343324172633   -0.237885200396
 H   -0.258847055152   -2.975284172633   -1.187455200396
 H   -1.558257055152   -3.121764172633    0.035144799604
 H    2.348042944848   -1.929824172633    1.497014799604
 C   -1.214177055152    0.992675827367   -0.246885200396
 C   -1.727177055152    1.201675827367   -1.668885200396
 C    0.039822944848    1.802675827367    0.041114799604
 O    0.266822944848    2.850675827367   -0.561885200396
 N    0.855822944848    1.336675827367    0.974114799604
 H   -1.978177055152    1.338675827367    0.451114799604
 H   -1.109177055152   -0.059324172633   -0.085885200396
 H   -1.852177055152    2.275675827367   -1.820885200396
 H    1.629822944848    1.929675827367    1.245114799604
 H    0.539822944848    0.597675827367    1.582114799604
 H   -2.692887055152    0.689745827367   -1.792715200396
 H   -0.997147055152    0.829075827367   -2.402525200396
