23
-1 1 
 C    0.713924917056   -3.957325203058   -2.413771044076
 C   -0.253075082944    0.024674796942   -1.066771044076
 C   -0.022075082944   -0.220325203058   -2.407771044076
 C   -0.158075082944   -1.012325203058   -0.153771044076
 C    0.302924917056   -1.505325203058   -2.837771044076
 C    0.170924917056   -2.298325203058   -0.584771044076
 C    0.413924917056   -2.555325203058   -1.932771044076
 O   -0.573075082944    1.286674796942   -0.669771044076
 H   -0.433075082944    1.923674796942   -1.378771044076
 H   -0.095075082944    0.585674796942   -3.124771044076
 H   -0.440075082944   -0.795325203058    0.855228955924
 H    0.472924917056   -1.685325203058   -3.891771044076
 H    0.217924917056   -3.106325203058    0.132228955924
 H    1.220924917056   -4.495325203058   -1.618771044076
 H    1.370924917056   -3.893325203058   -3.278771044076
 H   -0.200225082944   -4.501204203058   -2.693995044076
 C    1.194924917056    2.162674796942    2.209228955924
 C   -0.193075082944    2.266674796942    2.795228955924
 O   -1.151075082944    2.179674796942    1.998228955924
 O   -0.328075082944    2.459674796942    4.025228955924
 H    1.273924917056    2.830674796942    1.348228955924
 H    1.362924917056    1.137674796942    1.868228955924
 H    1.977525717056    2.426901796942    2.935672955924
