27
0 1 
 C    1.789621489332    2.172716975351   -0.640493872544
 C    1.925621489332    3.210716975351   -1.734493872544
 H    0.751621489332    1.903716975351   -0.470493872544
 H    2.360621489332    1.283716975351   -0.901493872544
 H    2.191621489332    2.571716975351    0.288506127456
 H    2.988621489332    3.429716975351   -1.851493872544
 H    1.419212489332    4.146966975351   -1.457033872544
 H    1.572845489332    2.792691375351   -2.688853872544
 C    1.337621489332   -1.299283024649   -1.384493872544
 C    0.986621489332   -2.691283024649   -1.929493872544
 C    0.340621489332   -0.839283024649   -0.350493872544
 C   -0.974378510668   -0.574283024649   -0.731493872544
 C    0.695621489332   -0.647283024649    0.985506127456
 C   -1.932378510668   -0.130283024649    0.183506127456
 C   -0.252378510668   -0.213283024649    1.919506127456
 C   -1.554378510668    0.052716975351    1.512506127456
 O   -2.513378510668    0.450716975351    2.395506127456
 H    2.336621489332   -1.322283024649   -0.948493872544
 H    1.337621489332   -0.574283024649   -2.199493872544
 H   -0.022378510668   -2.622283024649   -2.336493872544
 H   -1.264378510668   -0.714283024649   -1.764493872544
 H    1.713621489332   -0.828283024649    1.305506127456
 H   -2.945378510668    0.066716975351   -0.139493872544
 H    0.042621489332   -0.093283024649    2.947506127456
 H   -3.353378510668    0.619716975351    1.946506127456
 H    1.007155489332   -3.442677024649   -1.126383872544
 H    1.625981489332   -2.954163024649   -2.785133872544
