32
0 1 
 C    3.556600219759    0.880271723996   -0.970715108172
 C    0.374600219759   -0.513728276004   -2.574715108172
 C    1.663600219759   -0.426728276004   -2.041715108172
 C   -0.443399780241    0.616271723996   -2.611715108172
 C    2.148600219759    0.776271723996   -1.523715108172
 C    0.029600219759    1.831271723996   -2.112715108172
 C    1.323600219759    1.907271723996   -1.579715108172
 O   -1.705399780241    0.524271723996   -3.131715108172
 H    0.012600219759   -1.456728276004   -2.960715108172
 H    2.262600219759   -1.309728276004   -1.997715108172
 H   -1.899399780241   -0.363728276004   -3.452715108172
 H   -0.603399780241    2.706271723996   -2.145715108172
 H    3.870600219759   -0.072728276004   -0.541715108172
 H    3.550600219759    1.620271723996   -0.170715108172
 H    1.686600219759    2.855271723996   -1.203715108172
 H    4.263023219759    1.202941723996   -1.749721108172
 C    0.744600219759    1.445271723996    3.341284891828
 C   -0.398399780241   -1.230728276004    0.877284891828
 C   -1.560399780241   -1.690728276004    1.493284891828
 C    0.355600219759   -0.221728276004    1.481284891828
 C   -0.056399780241    0.344271723996    2.687284891828
 C   -1.983399780241   -1.128728276004    2.694284891828
 C   -1.234399780241   -0.112728276004    3.279284891828
 O   -2.291399780241   -2.684728276004    0.920284891828
 H   -0.085399780241   -1.653728276004   -0.064715108172
 H    1.260600219759    0.128271723996    1.003284891828
 H   -2.890399780241   -1.475728276004    3.171284891828
 H   -3.041399780241   -2.924728276004    1.483284891828
 H    0.052600219759    2.234271723996    3.637284891828
 H    1.430600219759    1.870271723996    2.608284891828
 H   -1.569399780241    0.326271723996    4.211284891828
 H    1.308018119759    1.122291723996    4.229116891828
