26
-1 1 
 C    0.925671626678    3.788971064981    1.844792494379
 C    0.159671626678    3.979971064981    0.553792494379
 O    0.753671626678    4.478971064981   -0.418207505621
 O   -1.042328373322    3.632971064981    0.528792494379
 H    1.294671626678    2.761971064981    1.885792494379
 H    0.286671626678    3.923971064981    2.709792494379
 H    1.789161626678    4.466704064981    1.915902494379
 C    0.810671626678   -4.097028935019    1.338792494379
 C   -0.759328373322   -1.557028935019   -0.933207505621
 C    0.223671626678   -1.917028935019    0.022792494379
 C    0.008671626678   -3.293028935019    0.363792494379
 C   -1.058328373322   -3.705028935019   -0.373207505621
 C    0.080671626678    0.653971064981   -1.046207505621
 C   -0.842328373322   -0.281028935019   -1.471207505621
 C    1.065671626678    0.327971064981   -0.106207505621
 C    1.152671626678   -0.954028935019    0.423792494379
 N   -1.524328373322   -2.671028935019   -1.152207505621
 H    0.024671626678    1.662971064981   -1.425207505621
 H   -1.607328373322   -0.028028935019   -2.191207505621
 H    1.777671626678    1.083971064981    0.194792494379
 H    1.940671626678   -1.223028935019    1.101792494379
 H   -2.317328373322   -2.741028935019   -1.781207505621
 H   -1.478328373322   -4.706028935019   -0.343207505621
 H    0.155671626678   -4.811028935019    1.842792494379
 H    1.186671626678   -3.411028935019    2.098792494379
 H    1.663881626678   -4.626958935019    0.890227494379
