24
0 1 
 C    0.360958183895   -3.582305681850   -0.573837846065
 C   -1.068041816105    0.422694318150    0.051162153935
 C   -0.875041816105   -0.438305681850    1.133162153935
 C   -0.824041816105   -0.039305681850   -1.242837846065
 C   -0.420041816105   -1.727305681850    0.929162153935
 C   -0.342041816105   -1.326305681850   -1.429837846065
 C   -0.139041816105   -2.185305681850   -0.351837846065
 O   -1.555041816105    1.682694318150    0.284162153935
 H   -1.066041816105   -0.100305681850    2.140162153935
 H   -1.642041816105    1.865694318150    1.219162153935
 H   -0.971041816105    0.625694318150   -2.080837846065
 H   -0.263041816105   -2.379305681850    1.777162153935
 H   -0.124041816105   -1.666305681850   -2.434837846065
 H    1.244958183895   -3.728305681850    0.048162153935
 H    0.664958183895   -3.703305681850   -1.614837846065
 H   -0.382921816105   -4.350695681850   -0.316506846065
 C    1.484958183895    3.256694318150    0.522162153935
 C    2.985958183895    2.943694318150    0.441162153935
 H    1.064958183895    3.349694318150   -0.477837846065
 H    0.955958183895    2.479694318150    1.065162153935
 H    1.307958183895    4.167694318150    1.085162153935
 H    3.364958183895    2.854694318150    1.459162153935
 H    3.522038183895    3.747804318150   -0.084219846065
 H    3.147918183895    1.991384318150   -0.085021846065
