16
0 1 
 C    1.207632489615   -1.596731594240   -0.382336427809
 C    2.597632489615   -1.946731594240    0.125663572191
 H    0.447632489615   -2.097731594240    0.214663572191
 H    1.056632489615   -0.520731594240   -0.293336427809
 H    1.103632489615   -1.877731594240   -1.430336427809
 H    3.286632489615   -1.253731594240   -0.343336427809
 H    2.861732489615   -2.973873594240   -0.166276427809
 H    2.648712489615   -1.819388594240    1.217072572191
 C   -1.444367510385    1.158268405760    0.095663572191
 C   -2.360367510385    2.382268405760    0.169663572191
 H   -1.028367510385    0.938268405760    1.079663572191
 H   -2.005367510385    0.293268405760   -0.262336427809
 H   -0.626367510385    1.357268405760   -0.598336427809
 H   -2.728367510385    2.577268405760   -0.840336427809
 H   -1.788867510385    3.254202405760    0.520545572191
 H   -3.233947510385    2.157756405760    0.799304572191
