18
-1 1 
 C    1.173461771058    0.477747989398   -0.941460415475
 C    1.933461771058    0.660747989398    0.370539584525
 C   -0.147538228942    1.247747989398   -0.961460415475
 O   -0.909538228942    1.208747989398    0.034539584525
 O   -0.421538228942    1.915747989398   -1.980460415475
 H    1.802461771058    0.798747989398   -1.774460415475
 H    0.961461771058   -0.584252010602   -1.068460415475
 H    1.279461771058    0.359747989398    1.189539584525
 H    2.243551771058    1.705237989398    0.521805584525
 H    2.832661771058    0.027167989398    0.374893584525
 C   -0.535538228942   -2.241252010602    1.111539584525
 C   -1.030538228942   -3.145252010602    2.235539584525
 H    0.393461771058   -1.768252010602    1.420539584525
 H   -0.327538228942   -2.840252010602    0.226539584525
 H   -1.258538228942   -1.461252010602    0.869539584525
 H   -0.238538228942   -3.851252010602    2.485539584525
 H   -1.911818228942   -3.713476010602    1.903182584525
 H   -1.241368228942   -2.536602010602    3.127219584525
