20
0 1 
 C    1.411299818043   -0.051922165380    0.711292635798
 C    0.579299818043    2.317077834620    1.969292635798
 S    0.806299818043    1.595077834620    0.324292635798
 H    0.621299818043   -0.754922165380    0.948292635798
 H    1.933299818043   -0.437922165380   -0.165707364202
 H    2.134299818043   -0.006922165380    1.526292635798
 H   -0.203700181957    3.064077834620    1.886292635798
 H    1.496299818043    2.849077834620    2.224292635798
 H    0.348599818043    1.648607834620    2.811863635798
 C   -0.768700181957   -2.193922165380   -1.337707364202
 C   -1.581700181957   -2.529922165380   -0.091707364202
 C   -1.424700181957   -1.053922165380   -2.110707364202
 H    0.247299818043   -1.923922165380   -1.050707364202
 H   -0.723700181957   -3.070922165380   -1.988707364202
 H   -2.610700181957   -2.709922165380   -0.407707364202
 H   -1.581700181957   -1.686922165380    0.596292635798
 H   -2.406700181957   -1.386922165380   -2.464707364202
 H   -1.584700181957   -0.213922165380   -1.426707364202
 H   -1.191360181957   -3.422746165380    0.418683635798
 H   -0.809710181957   -0.724642165380   -2.961213364202
