25
1 1 
 C   -0.226769957650    0.620536490981    3.632376770613
 C    0.522230042350    0.295536490981    2.385376770613
 O    0.480230042350    1.027536490981    1.403376770613
 N    1.209230042350   -0.830463509019    2.403376770613
 H    0.441230042350    0.576536490981    4.487376770613
 H   -0.922769957650   -0.208463509019    3.765376770613
 H    1.912230042350   -0.973463509019    1.694376770613
 H    1.225230042350   -1.399463509019    3.240376770613
 H   -0.811279957650    1.548866490981    3.551436770613
 C   -1.317769957650    0.739536490981   -1.014623229387
 C   -2.310769957650    1.721536490981   -1.584623229387
 C    0.379230042350   -0.858463509019   -1.819623229387
 N   -0.518769957650    0.084536490981   -2.056623229387
 N    0.601230042350   -1.262463509019   -0.584623229387
 N    1.051230042350   -1.399463509019   -2.813623229387
 H   -0.662769957650    1.335536490981   -0.403623229387
 H   -1.853769957650   -0.001463509019   -0.415623229387
 H   -3.039769957650    1.965536490981   -0.812623229387
 H   -2.841769957650    1.249536490981   -2.413623229387
 H   -0.677769957650    0.346536490981   -3.023623229387
 H    0.140230042350   -0.791463509019    0.175376770613
 H    1.211230042350   -2.049463509019   -0.415623229387
 H    0.955230042350   -1.039463509019   -3.752623229387
 H    1.721230042350   -2.134463509019   -2.645623229387
 H   -1.800679957650    2.627806490981   -1.943067229387
