16
-1 1 
 C    2.428817691351   -1.549258533646    2.537021456519
 C    1.262817691351   -0.864258533646    1.826021456519
 O    0.357817691351   -0.340258533646    2.471021456519
 N    1.257817691351   -0.865258533646    0.501021456519
 H    0.436817691351   -0.464258533646    0.056021456519
 H    1.995817691351   -1.261258533646   -0.062978543481
 H    2.197817691351   -2.605258533646    2.639021456519
 H    2.507817691351   -1.135258533646    3.543021456519
 H    3.391167691351   -1.413308533646    2.021861456519
 C   -0.114182308649    0.935741466354   -2.587978543481
 C   -1.401182308649    0.909741466354   -1.774978543481
 O   -1.458182308649    0.121741466354   -0.800978543481
 O   -2.337182308649    1.661741466354   -2.100978543481
 H   -0.012182308649   -0.027258533646   -3.095978543481
 H    0.719817691351    1.041741466354   -1.892978543481
 H   -0.069752308649    1.745531466354   -3.331118543481
