17
0 1 
 C    1.402331418296    1.746477104139    2.669116811174
 C    1.370331418296    0.608477104139    3.710116811174
 H    0.428331418296    2.208477104139    2.625116811174
 H    2.132331418296    2.503477104139    2.948116811174
 H    1.640331418296    1.338477104139    1.688116811174
 H    2.323331418296    0.087477104139    3.601116811174
 H    0.536281418296   -0.075702895861    3.495046811174
 H    1.348841418296    0.998087104139    4.738576811174
 C   -0.110668581704   -0.027522895861   -0.270883188826
 C   -1.701668581704   -0.139522895861   -2.491883188826
 S   -0.436668581704   -1.067522895861   -1.707883188826
 H   -1.004668581704    0.066477104139    0.344116811174
 H    0.673331418296   -0.482522895861    0.333116811174
 H    0.214331418296    0.959477104139   -0.600883188826
 H   -1.897668581704   -0.567522895861   -3.473883188826
 H   -1.325668581704    0.871477104139   -2.640883188826
 H   -2.650738581704   -0.092812895861   -1.937733188826
