19
0 1 
 C   -0.329126691724   -0.878882966637   -1.011591379998
 C   -1.661126691724   -1.144882966637   -1.756591379998
 C   -0.191126691724   -1.707882966637    0.248408620002
 H    0.490873308276   -1.157882966637   -1.669591379998
 H   -0.221126691724    0.177117033363   -0.779591379998
 H   -1.693126691724   -2.198882966637   -2.039591379998
 H   -0.391126691724   -2.757882966637    0.031408620002
 H    0.830873308276   -1.617882966637    0.620408620002
 H   -0.861126691724   -1.361882966637    1.032408620002
 H   -2.517664691724   -0.941355966637   -1.097111379998
 H   -1.673592691724   -0.543579966637   -2.677611379998
 C    1.360873308276    1.973117033363    0.533408620002
 C    0.783873308276    1.712117033363    1.921408620002
 H    2.151873308276    2.720117033363    0.578408620002
 H    1.794873308276    1.051117033363    0.147408620002
 H    0.574873308276    2.314117033363   -0.141591379998
 H    1.597873308276    1.452117033363    2.600408620002
 H    0.127873308276    0.847117033363    1.845408620002
 H    0.224839308276    2.570302033363    2.322658620002
