23
0 1 
 C    1.295100895420   -3.016715597030   -0.413211112720
 C    2.560100895420   -3.371715597030    0.371788887280
 H    0.574100895420   -2.546715597030    0.255788887280
 H    1.533100895420   -2.325715597030   -1.221211112720
 H    0.831100895420   -3.913715597030   -0.820211112720
 H    2.294100895420   -4.095715597030    1.140788887280
 H    3.315490895420   -3.807904597030   -0.298381112720
 H    2.980780895420   -2.490222597030    0.877748887280
 C    1.634100895420    1.732284402970   -0.613211112720
 C    0.030100895420    0.287284402970    0.703788887280
 C    0.241100895420    1.318284402970   -0.204211112720
 C   -1.256899104580   -0.096715597030    1.045788887280
 C   -0.854899104580    1.930284402970   -0.789211112720
 C   -2.340899104580    0.515284402970    0.452788887280
 C   -2.137899104580    1.531284402970   -0.461211112720
 H    0.871100895420   -0.201715597030    1.167788887280
 H   -1.415899104580   -0.887715597030    1.764788887280
 H    1.593100895420    2.065284402970   -1.653211112720
 H    2.291100895420    0.861284402970   -0.585211112720
 H   -0.714899104580    2.724284402970   -1.509211112720
 H   -3.343899104580    0.197284402970    0.696788887280
 H   -2.986899104580    2.003284402970   -0.923211112720
 H    2.061380895420    2.540574402970   -0.001571112720
