19
0 1 
 C   -0.212053592960   -1.918494960520   -0.772409247036
 C   -0.702053592960   -3.061494960520   -1.638409247036
 H   -0.922053592960   -1.718494960520    0.030590752964
 H    0.742946407040   -2.188494960520   -0.321409247036
 H   -0.080053592960   -1.021494960520   -1.377409247036
 H   -0.921053592960   -3.913494960520   -1.003409247036
 H    0.117946407040   -3.345494960520   -2.297409247036
 H   -1.587763592960   -2.812545960520   -2.241354047036
 C   -0.038053592960    1.604505039480    0.283590752964
 C    1.151946407040    0.809505039480    0.782590752964
 C   -0.217053592960    2.671505039480    1.357590752964
 H   -0.927053592960    0.984505039480    0.176590752964
 H    0.212946407040    2.080505039480   -0.666409247036
 H    0.837946407040    0.054505039480    1.503590752964
 H    1.660946407040    0.349505039480   -0.063409247036
 H   -0.760053592960    2.240505039480    2.200590752964
 H   -0.751053592960    3.540505039480    0.971590752964
 H    1.768728407040    1.568965039480    1.285377752964
 H    0.813231407040    2.924555039480    1.648239752964
