16
0 1 
 C   -0.262838938624   -1.252346393495    1.212100862221
 C   -0.553838938624   -1.356346393495    2.696100862221
 H   -1.133838938624   -0.863346393495    0.681100862221
 H    0.580161061376   -0.579346393495    1.048100862221
 H   -0.023838938624   -2.236346393495    0.806100862221
 H    0.352161061376   -1.686346393495    3.210100862221
 H   -1.355428938624   -2.085337393495    2.885910862221
 H   -0.822938938624   -0.365308393495    3.090350862221
 C   -0.280838938624    1.241653606505   -1.620899137779
 C    1.096161061376    1.362653606505   -2.291899137779
 H   -0.717838938624    0.264653606505   -1.830899137779
 H   -0.168838938624    1.354653606505   -0.541899137779
 H   -0.952838938624    2.018653606505   -1.971899137779
 H    1.492161061376    2.347653606505   -2.049899137779
 H    0.981691061376    1.276983606505   -3.382569137779
 H    1.785531061376    0.605651606505   -1.889769137779
