16
0 1 
 C   -0.192063880588   -0.628722221747    1.862578029428
 C   -0.727063880588   -2.065722221747    1.847578029428
 H    0.873936119412   -0.636722221747    1.632578029428
 H   -0.703063880588   -0.023722221747    1.114578029428
 H   -0.331063880588   -0.185722221747    2.845578029428
 H   -0.429063880588   -2.504722221747    0.896578029428
 H   -0.295163880588   -2.646832221747    2.675688029428
 H   -1.826093880588   -2.060712221747    1.893398029428
 C    0.962936119412    1.285277778253   -1.287421970572
 C   -0.050063880588    1.411277778253   -2.418421970572
 H    0.648936119412    1.880277778253   -0.433421970572
 H    1.060936119412    0.249277778253   -0.971421970572
 H    1.945936119412    1.616277778253   -1.609421970572
 H    0.307936119412    0.827277778253   -3.268421970572
 H   -0.162553880588    2.457127778253   -2.740221970572
 H   -1.016193880588    1.003057778253   -2.086831970572
