23
0 1 
 C   -0.569448877625    2.069902263576   -1.945060342741
 C   -0.030448877625    0.224902263576    1.396939657259
 C    0.214551122375    0.994902263576    0.235939657259
 C   -1.327448877625   -0.189097736424    1.681939657259
 C   -0.834448877625    1.279902263576   -0.662060342741
 C   -2.380448877625    0.065902263576    0.799939657259
 C   -2.143448877625    0.846902263576   -0.351060342741
 H    0.777551122375   -0.006097736424    2.077939657259
 H    1.215551122375    1.330902263576    0.012939657259
 H   -1.513448877625   -0.757097736424    2.581939657259
 H   -3.375448877625   -0.291097736424    1.013939657259
 H   -1.244448877625    1.684902263576   -2.703060342741
 H    0.444551122375    1.851902263576   -2.284060342741
 H   -2.960448877625    1.067902263576   -1.023060342741
 H   -0.684912877625    3.160712263576   -1.862586342741
 C    2.703551122375   -1.726097736424   -0.439060342741
 C    3.438551122375   -3.042097736424   -0.334060342741
 H    3.406551122375   -0.904097736424   -0.320060342741
 H    2.232551122375   -1.631097736424   -1.412060342741
 H    1.940551122375   -1.671097736424    0.338939657259
 H    2.700551122375   -3.843097736424   -0.329060342741
 H    4.058007522375   -3.089197736424    0.573714657259
 H    4.064761922375   -3.155957736424   -1.231220342741
