17
0 1 
 C   -0.213600320371    1.360536222802    1.716297657164
 C   -1.008600320371    0.504536222802    0.771297657164
 O   -1.618600320371    1.019536222802   -0.140702342836
 N   -1.035600320371   -0.811463777198    0.973297657164
 H    0.744399679629    1.586536222802    1.249297657164
 H   -0.005600320371    0.796536222802    2.626297657164
 H   -1.624600320371   -1.368463777198    0.374297657164
 H   -0.548600320371   -1.225463777198    1.753297657164
 H   -0.734600320371    2.288820222802    1.993503657164
 C    1.263399679629   -0.622463777198   -1.848702342836
 C    2.551399679629   -1.333463777198   -1.436702342836
 H    1.000399679629   -0.918463777198   -2.862702342836
 H    0.450399679629   -0.915463777198   -1.190702342836
 H    1.381399679629    0.458536222802   -1.776702342836
 H    2.893399679629   -0.899463777198   -0.497702342836
 H    3.344649679629   -1.234927777198   -2.192379342836
 H    2.306479679629   -2.392403777198   -1.267416342836
