16
0 1 
 C   -1.423609399045   -0.974376899180   -1.029419835397
 C   -1.521609399045   -0.676376899180   -2.518419835397
 H   -0.390609399045   -1.193376899180   -0.752419835397
 H   -1.764609399045   -0.121376899180   -0.445419835397
 H   -2.062609399045   -1.817376899180   -0.758419835397
 H   -2.578609399045   -0.631376899180   -2.786419835397
 H   -1.050459399045   -1.491223899180   -3.087669835397
 H   -1.049929399045    0.282015100820   -2.781099835397
 C    1.138390600955    0.530623100820    1.155580164603
 C    1.805390600955    1.121623100820    2.392580164603
 H    1.128390600955    1.251623100820    0.337580164603
 H    1.700390600955   -0.343376899180    0.824580164603
 H    0.119390600955    0.219623100820    1.391580164603
 H    2.779390600955    1.501623100820    2.094580164603
 H    1.194900600955    1.950346100820    2.780550164603
 H    1.991480600955    0.375108100820    3.178760164603
