20
0 1 
 C    1.308507020114    0.803679827447   -1.094831533381
 C    2.525507020114    1.144679827447   -1.963831533381
 O    1.290507020114   -0.571320172553   -0.761831533381
 H    1.329507020114    1.393679827447   -0.179831533381
 H    0.396507020114    1.050679827447   -1.639831533381
 H    3.426507020114    0.771679827447   -1.471831533381
 H    1.770507020114   -0.686320172553    0.073168466619
 H    2.600777020114    2.235388827447   -2.085031533381
 H    2.426747020114    0.637092827447   -2.934731533381
 C   -1.478492979886   -0.885320172553    0.953168466619
 C   -0.867492979886    0.212679827447    1.798168466619
 C   -2.984492979886   -0.707320172553    1.118168466619
 H   -1.148492979886   -1.870320172553    1.285168466619
 H   -1.225492979886   -0.730320172553   -0.095831533381
 H   -0.835492979886   -0.116320172553    2.835168466619
 H    0.132507020114    0.486679827447    1.471168466619
 H   -3.486492979886   -0.879320172553    0.165168466619
 H   -1.574682979886    1.050311827447    1.707268466619
 H   -3.095422979886    0.344621827447    1.419968466619
 H   -3.380112979886   -1.388099172553    1.886268466619
