25
0 1 
 C    1.104280124995   -3.148915550342   -0.474170293258
 C    1.171280124995   -4.587915550342   -1.010170293258
 O    1.944280124995   -2.984915550342    0.649829706742
 H    1.405280124995   -2.454915550342   -1.261170293258
 H    0.075280124995   -2.924915550342   -0.186170293258
 H    2.181280124995   -4.765915550342   -1.382170293258
 H    1.646280124995   -2.219915550342    1.158829706742
 H    0.455020124995   -4.699736550342   -1.837500293258
 H    0.974910124995   -5.310598550342   -0.204460293258
 C   -1.832719875005    2.107084449658   -2.512170293258
 C    0.355280124995    0.508084449658    0.198829706742
 C   -0.224719875005    0.806084449658   -1.036170293258
 C   -0.044719875005    1.223084449658    1.331829706742
 C   -1.174719875005    1.828084449658   -1.180170293258
 C   -0.996719875005    2.234084449658    1.219829706742
 C   -1.538719875005    2.536084449658   -0.021170293258
 O    0.478280124995    0.955084449658    2.554829706742
 H    1.107280124995   -0.261915550342    0.273829706742
 H    0.076280124995    0.240084449658   -1.909170293258
 H    1.227280124995    0.347084449658    2.525829706742
 H   -1.287719875005    2.790084449658    2.097829706742
 H   -2.907719875005    2.144084449658   -2.339170293258
 H   -1.672719875005    1.249084449658   -3.153170293258
 H   -2.278719875005    3.322084449658   -0.096170293258
 H   -1.568476875005    3.017814449658   -3.069610293258
