20
0 1 
 C    3.143410297181   -0.207881902015    1.423923312348
 C   -0.182589702819    0.778118097985    0.276923312348
 C    1.928410297181    0.243118097985    0.645923312348
 C    1.792410297181    0.548118097985   -0.671076687652
 N    0.675410297181    0.399118097985    1.220923312348
 N    0.471410297181    0.889118097985   -0.876076687652
 H   -1.228589702819    1.016118097985    0.431923312348
 H    0.057410297181    1.186118097985   -1.754076687652
 H    2.577410297181    0.518118097985   -1.417076687652
 H    3.105410297181   -1.290881902015    1.530923312348
 H    3.043410297181    0.220118097985    2.421923312348
 H    4.121600297181    0.091958097985    1.019893312348
 C   -3.021589702819   -0.729881902015   -1.074076687652
 C   -4.167589702819   -1.674881902015   -0.731076687652
 H   -2.202589702819   -0.884881902015   -0.373076687652
 H   -2.664589702819   -0.936881902015   -2.085076687652
 H   -3.362589702819    0.305118097985   -1.027076687652
 H   -4.942589702819   -1.573881902015   -1.494076687652
 H   -4.598129702819   -1.417451902015    0.247883312348
 H   -3.797319702819   -2.710481902015   -0.752046687652
