19
0 1 
 C   -1.045567574268    1.061370598377    1.825127071521
 C   -0.065567574268    2.152370598377    2.261127071521
 H   -1.697567574268    0.774370598377    2.642127071521
 H   -0.485567574268    0.190370598377    1.503127071521
 H   -1.671567574268    1.419370598377    1.010127071521
 H   -0.626567574268    2.877370598377    2.848127071521
 H    0.740832425732    1.724060598377    2.874537071521
 H    0.369852425732    2.666699598377    1.391717071521
 C    0.112432425732   -0.700629401623   -1.105872928479
 C   -0.459567574268   -1.306629401623   -2.393872928479
 C    1.472432425732   -1.254629401623   -0.672872928479
 H    0.183432425732    0.382370598377   -1.207872928479
 H   -0.584567574268   -0.913629401623   -0.300872928479
 H   -0.477567574268   -2.392629401623   -2.293872928479
 H    1.724432425732   -0.855629401623    0.310127071521
 H    2.249432425732   -0.956629401623   -1.373872928479
 H    1.429432425732   -2.342629401623   -0.612872928479
 H   -1.491347574268   -0.940282401623   -2.499772928479
 H    0.168712425732   -1.059905601623   -3.262422928479
