27
0 1 
 C    1.829033013970    0.512225956956    3.025831049281
 C    2.938033013970    0.175225956956    4.010831049281
 H    1.595033013970    1.574225956956    3.069831049281
 H    2.167033013970    0.281225956956    2.014831049281
 H    0.938033013970   -0.078774043044    3.243831049281
 H    3.763033013970    0.855225956956    3.832831049281
 H    3.301033013970   -0.813774043044    3.760831049281
 H    2.626943013970    0.213215956956    5.065241049281
 C   -0.113966986030    2.019225956956    0.467831049281
 C   -1.245966986030    3.022225956956    0.241831049281
 C   -0.294966986030    0.725225956956   -0.287168950719
 C    0.224033013970    0.565225956956   -1.573168950719
 C   -1.009966986030   -0.332774043044    0.286831049281
 C    0.033033013970   -0.628774043044   -2.279168950719
 C   -1.203966986030   -1.529774043044   -0.408168950719
 C   -0.680966986030   -1.675774043044   -1.691168950719
 O   -0.867966986030   -2.848774043044   -2.362168950719
 H    0.850033013970    2.468225956956    0.220831049281
 H   -0.092966986030    1.769225956956    1.526831049281
 H   -2.166966986030    2.466225956956    0.050831049281
 H    0.774033013970    1.369225956956   -2.025168950719
 H   -1.417966986030   -0.225774043044    1.283831049281
 H    0.445033013970   -0.751774043044   -3.267168950719
 H   -1.751966986030   -2.344774043044    0.041831049281
 H   -0.475966986030   -2.829774043044   -3.242168950719
 H   -1.025176986030    3.684595956956   -0.608176950719
 H   -1.401696986030    3.613995956956    1.155920049281
