24
0 1 
 C    3.017013295161   -1.500033465971   -1.144242473329
 C    2.065013295161   -2.441033465971   -0.407242473329
 O    1.671013295161   -3.498033465971   -0.908242473329
 N    1.715013295161   -2.065033465971    0.816757526671
 H    4.016013295161   -1.665033465971   -0.740242473329
 H    2.738013295161   -0.467033465971   -0.932242473329
 H    1.093013295161   -2.658033465971    1.343757526671
 H    2.063013295161   -1.202033465971    1.205757526671
 H    3.035683295161   -1.665923465971   -2.231502473329
 C   -0.417986704839    3.766966534029    0.337757526671
 C   -0.805986704839    0.062966534029   -0.343242473329
 C   -0.280986704839    1.356966534029   -0.326242473329
 C   -2.048986704839   -0.197033465971    0.219757526671
 C   -1.008986704839    2.396966534029    0.252757526671
 C   -2.784986704839    0.838966534029    0.788757526671
 C   -2.259986704839    2.128966534029    0.812757526671
 H   -0.246986704839   -0.740033465971   -0.801242473329
 H    0.689013295161    1.547966534029   -0.765242473329
 H   -2.444986704839   -1.203033465971    0.209757526671
 H   -3.752986704839    0.632966534029    1.222757526671
 H   -1.196986704839    4.501966534029    0.540757526671
 H    0.017013295161    4.006966534029   -0.633242473329
 H   -2.830986704839    2.926966534029    1.262757526671
 H    0.360863295161    3.826106534029    1.112287526671
