23
0 1 
 C    1.247073792154   -2.661593512855    2.064397225932
 C    0.420073792154   -3.847593512855    2.575397225932
 H    1.135073792154   -1.793593512855    2.711397225932
 H    2.296073792154   -2.927593512855    2.078397225932
 H    0.952073792154   -2.411593512855    1.044397225932
 H    0.713073792154   -4.022593512855    3.607397225932
 H   -0.660246207846   -3.645573512855    2.529548225932
 H    0.646723792154   -4.761423512855    2.006596225932
 C   -2.647926207846    0.557406487145   -0.893602774068
 C   -0.375926207846    0.216406487145    0.129397225932
 C   -1.181926207846    0.840406487145   -0.823602774068
 C    0.968073792154    0.525406487145    0.219397225932
 C   -0.626926207846    1.793406487145   -1.669602774068
 C    1.527073792154    1.463406487145   -0.651602774068
 C    0.728073792154    2.100406487145   -1.597602774068
 H   -0.806926207846   -0.509593512855    0.804397225932
 H    1.591073792154    0.041406487145    0.959397225932
 H   -2.861926207846   -0.406593512855   -0.428602774068
 H   -2.929926207846    0.488406487145   -1.942602774068
 H   -1.247926207846    2.299406487145   -2.395602774068
 H    2.579073792154    1.705406487145   -0.586602774068
 H    1.154073792154    2.837406487145   -2.263602774068
 H   -3.246886207846    1.346646487145   -0.415735774068
