16
0 1 
 C    0.449980042703    0.102570583176   -1.905449176211
 C    1.976980042703    0.010570583176   -1.884449176211
 H    0.100980042703    0.371570583176   -2.904449176211
 H    0.025980042703   -0.868429416824   -1.641449176211
 H    0.093980042703    0.839570583176   -1.190449176211
 H    2.297980042703   -0.258429416824   -0.883449176211
 H    2.414670042703    0.974070583176   -2.184599176211
 H    2.323650042703   -0.779348416824   -2.566979176211
 C   -0.629019957297    0.201570583176    1.473550823789
 C   -1.798019957297   -0.310429416824    2.313550823789
 H   -0.917019957297    1.101570583176    0.930550823789
 H    0.207980042703    0.441570583176    2.127550823789
 H   -0.311019957297   -0.574429416824    0.776550823789
 H   -2.149019957297    0.500570583176    2.946550823789
 H   -2.615189957297   -0.659412416824    1.665130823789
 H   -1.472019957297   -1.139863416824    2.958340823789
