30
1 1 
 C   -1.154341369216    2.125791117629   -2.585675711645
 C   -1.501341369216   -0.529208882371    0.110324288355
 C   -0.793341369216    0.037791117629   -0.989675711645
 C   -1.504341369216    1.218791117629   -1.410675711645
 C   -2.569341369216    1.328791117629   -0.562675711645
 C    0.088658630784   -2.293208882371    0.277324288355
 C   -1.063341369216   -1.683208882371    0.754324288355
 C    0.786658630784   -1.777208882371   -0.829675711645
 C    0.339658630784   -0.635208882371   -1.480675711645
 N   -2.566341369216    0.294791117629    0.360324288355
 H    0.455658630784   -3.187208882371    0.767324288355
 H   -1.600341369216   -2.084208882371    1.603324288355
 H    1.678658630784   -2.284208882371   -1.168675711645
 H    0.879658630784   -0.235208882371   -2.327675711645
 H   -3.258341369216    0.177791117629    1.093324288355
 H   -3.319341369216    2.094791117629   -0.593675711645
 H   -0.093341369216    2.016791117629   -2.802675711645
 H   -1.333341369216    3.161791117629   -2.295675711645
 H   -1.714021369216    1.907938517629   -3.507249711645
 C    2.428658630784    0.096791117629    1.921324288355
 C    3.787658630784   -0.503208882371    1.599324288355
 N    2.457658630784    1.589791117629    1.984324288355
 H    1.707658630784   -0.240208882371    1.167324288355
 H    2.096658630784   -0.300208882371    2.887324288355
 H    3.748658630784   -1.555208882371    1.851324288355
 H    4.552658630784   -0.050208882371    2.234324288355
 H    2.853658630784    2.006791117629    1.142324288355
 H    1.523658630784    1.960791117629    2.122324288355
 H    3.022658630784    1.904791117629    2.766324288355
 H    4.058688630784   -0.363762882371    0.542394888355
