16
-1 1 
 C    2.035359656143   -1.520195332215    0.760820163680
 C    1.818359656143   -0.168195332215    1.426820163680
 O    0.655359656143    0.281804667785    1.516820163680
 O    2.814359656143    0.457804667785    1.851820163680
 H    2.730359656143   -1.375195332215   -0.067179836320
 H    1.096359656143   -1.892195332215    0.346820163680
 H    2.458079656143   -2.261578332215    1.454834163680
 C   -3.146640343857    0.170804667785   -1.997179836320
 C   -1.756640343857    0.205804667785   -1.398179836320
 O   -0.847640343857   -0.499195332215   -1.837179836320
 N   -1.572640343857    1.034804667785   -0.390179836320
 H   -0.723640343857    0.886804667785    0.147820163680
 H   -2.375640343857    1.520804667785   -0.001179836320
 H   -3.325640343857    1.162804667785   -2.408179836320
 H   -3.870640343857   -0.016195332215   -1.202179836320
 H   -3.255770343857   -0.599577332215   -2.774741836320
