16
-1 1 
 C    1.451543587070    1.516861201005    0.817532502796
 C    0.278543587070    1.253861201005    1.712532502796
 O   -0.760456412930    1.883861201005    1.565532502796
 N    0.416543587070    0.299861201005    2.640532502796
 H    1.471543587070    0.761861201005    0.034532502796
 H    2.368543587070    1.405861201005    1.396532502796
 H   -0.366456412930    0.095861201005    3.240532502796
 H    1.271543587070   -0.231138798995    2.701532502796
 H    1.443633587070    2.521081201005    0.368652502796
 C   -1.080456412930   -2.281138798995   -2.377467497204
 C   -0.302456412930   -1.161138798995   -1.670467497204
 O   -0.591456412930   -0.933138798995   -0.474467497204
 O    0.584543587070   -0.510138798995   -2.273467497204
 H   -2.141456412930   -2.125138798995   -2.181467497204
 H   -0.812456412930   -3.245138798995   -1.939467497204
 H   -0.977536412930   -2.345913798995   -3.470727497204
