19
0 1 
 C    0.416488062840    1.087754164991    0.051524971298
 C    1.100488062840    1.773754164991    1.238524971298
 C   -0.427511937160    1.950754164991   -0.893475028702
 H    1.184488062840    0.590754164991   -0.542475028702
 H   -0.257511937160    0.340754164991    0.470524971298
 H    0.366488062840    2.364754164991    1.790524971298
 H    0.185488062840    2.726754164991   -1.343475028702
 H    1.909758062840    2.431143164991    0.887914971298
 H    1.482848062840    1.016947164991    1.939274971298
 H   -0.831501937160    1.309414164991   -1.690641028702
 H   -1.252671937160    2.429696164991   -0.346005028702
 C    0.087488062840   -2.199245835009   -0.611475028702
 C   -1.149511937160   -2.528245835009    0.213524971298
 H   -0.187511937160   -1.807245835009   -1.589475028702
 H    0.721488062840   -1.501245835009   -0.079475028702
 H    0.701488062840   -3.089245835009   -0.722475028702
 H   -1.850511937160   -1.695245835009    0.163524971298
 H   -1.620261937160   -3.437359835009   -0.188845028702
 H   -0.878801937160   -2.689225835009    1.267474971298
