18
-1 1 
 C   -0.708540119586    1.967188268808   -0.943112660947
 C   -0.050540119586    2.301188268808    0.379887339053
 C   -2.121540119586    1.467188268808   -0.802112660947
 H   -0.707540119586    2.854188268808   -1.580112660947
 H   -0.122540119586    1.190188268808   -1.439112660947
 H   -0.276540119586    1.512188268808    1.096887339053
 H   -0.459540119586    3.231188268808    0.769887339053
 H   -2.103540119586    0.562188268808   -0.182112660947
 H   -2.713540119586    2.218188268808   -0.268112660947
 H    1.043699880414    2.380328268808    0.300031339053
 H   -2.582042119586    1.249708268808   -1.777120660947
 C    1.790459880414   -1.676811731192    1.287887339053
 C    0.655459880414   -1.409811731192    0.282887339053
 O   -0.519540119586   -1.295811731192    0.686887339053
 O    0.948459880414   -1.318811731192   -0.934112660947
 H    2.555459880414   -0.908811731192    1.162887339053
 H    2.249459880414   -2.637811731192    1.049887339053
 H    1.485300880414   -1.696061731192    2.344536339053
