23
0 1 
 C    1.959433966576   -1.535991372343   -2.231194834514
 C    2.815433966576   -1.217991372343   -1.018194834514
 H    1.710433966576   -0.610991372343   -2.749194834514
 H    2.501433966576   -2.185991372343   -2.916194834514
 H    1.032433966576   -2.015991372343   -1.921194834514
 H    2.243433966576   -0.586991372343   -0.346194834514
 H    3.059712966576   -2.148989372343   -0.485684834514
 H    3.722362966576   -0.672399372343   -1.317874834514
 C   -2.496566033424   -0.731991372343    1.816805165486
 C   -0.479566033424    0.623008627657   -1.092194834514
 C    0.526433966576    1.336008627657   -0.440194834514
 C   -1.455566033424   -0.036991372343   -0.367194834514
 C   -1.448566033424    0.009008627657    1.018805165486
 C    0.553433966576    1.377008627657    0.943805165486
 C   -0.431566033424    0.717008627657    1.668805165486
 H   -0.475566033424    0.544008627657   -2.167194834514
 H    1.293433966576    1.842008627657   -1.011194834514
 H   -2.218566033424   -0.597991372343   -0.888194834514
 H    1.324433966576    1.941008627657    1.440805165486
 H   -3.406566033424   -0.807991372343    1.219805165486
 H   -2.744566033424   -0.144991372343    2.702805165486
 H   -0.419566033424    0.764008627657    2.744805165486
 H   -2.180306033424   -1.737411372343    2.131626165486
