22
0 1 
 C    1.135113845090   -0.107099233614   -0.136440068301
 C    1.924113845090   -1.403099233614   -0.225440068301
 C    1.331113845090    0.604900766386    1.213559931699
 C    1.359113845090    0.826900766386   -1.314440068301
 H    0.085113845090   -0.375099233614   -0.186440068301
 H    2.969113845090   -1.116099233614   -0.153440068301
 H    1.776113845090   -1.806099233614   -1.230440068301
 H    2.383113845090    0.855900766386    1.336559931699
 H    0.743113845090    1.521900766386    1.238559931699
 H    1.003113845090   -0.034099233614    2.034559931699
 H    1.092113845090    0.320900766386   -2.244440068301
 H    0.745113845090    1.717900766386   -1.209440068301
 H    2.409113845090    1.123900766386   -1.355440068301
 H    1.730183845090   -2.214159233614    0.491899931699
 C   -2.651886154910    0.048900766386   -0.528440068301
 C   -2.940886154910    0.010900766386    0.988559931699
 H   -3.569886154910    0.229900766386   -1.086440068301
 H   -1.939886154910    0.839900766386   -0.759440068301
 H   -2.227886154910   -0.904099233614   -0.845440068301
 H   -2.009886154910   -0.112099233614    1.537559931699
 H   -3.646996154910   -0.800689233614    1.218189931699
 H   -3.407266154910    0.973550766386    1.245069931699
