22
-1 1 
 C    2.195104171244   -1.482181049984   -2.319346688392
 C    0.997104171244   -2.068181049984   -0.104346688392
 C    1.036104171244   -1.806181049984   -1.441346688392
 C   -1.018895828756   -2.364181049984   -0.921346688392
 N   -0.294895828756   -2.413181049984    0.192653311608
 N   -0.239895828756   -1.995181049984   -1.929346688392
 H    1.773104171244   -2.049181049984    0.647653311608
 H   -0.634895828756   -2.662181049984    1.110653311608
 H    2.925104171244   -0.960181049984   -1.717346688392
 H    1.828104171244   -0.809181049984   -3.099346688392
 H   -2.071895828756   -2.575181049984   -1.064346688392
 H    2.707426171244   -2.374591049984   -2.708106688392
 C    0.153104171244    1.421818950016    1.063653311608
 C    0.528104171244    1.188818950016    2.537653311608
 C   -0.804895828756    2.593818950016    0.869653311608
 O   -1.288895828756    3.193818950016    1.861653311608
 O   -1.134895828756    2.923818950016   -0.295346688392
 H    1.076104171244    1.626818950016    0.530653311608
 H   -0.302895828756    0.518818950016    0.655653311608
 H    0.829104171244    2.146818950016    2.968653311608
 H    1.360662171244    0.473918950016    2.613613311608
 H   -0.333255528756    0.784858950016    3.089803311608
