30
0 1 
 C    0.212426639010   -2.304973336176    3.195666406292
 C    0.728426639010   -0.822973336176    1.091666406292
 C    0.967426639010   -1.243973336176    2.445666406292
 C    1.662426639010    0.195026663824    0.780666406292
 C    1.997426639010   -0.481973336176    2.893666406292
 C   -0.124573360990   -0.640973336176   -1.140333593708
 C    0.796426639010    0.373026663824   -1.418333593708
 C   -0.166573360990   -1.240973336176    0.100666406292
 C    1.704426639010    0.807026663824   -0.463333593708
 N    2.430426639010    0.375026663824    1.901666406292
 H   -0.805573360990   -0.968973336176   -1.907333593708
 H    0.803426639010    0.809026663824   -2.401333593708
 H   -0.889573360990   -2.014973336176    0.307666406292
 H    2.418426639010    1.587026663824   -0.673333593708
 H    0.787426639010   -3.224973336176    3.189666406292
 H   -0.690573360990   -2.491973336176    2.620666406292
 H    2.434426639010   -0.545973336176    3.880666406292
 H    3.193426639010    1.037026663824    2.008666406292
 H   -0.059313360990   -2.009383336176    4.219766406292
 C   -2.885573360990    1.283026663824   -2.400333593708
 C   -3.972573360990    2.372026663824   -2.510333593708
 C   -2.298573360990    0.894026663824   -3.755333593708
 H   -2.080573360990    1.638026663824   -1.755333593708
 H   -3.282573360990    0.384026663824   -1.941333593708
 H   -4.700573360990    2.064026663824   -3.262333593708
 H   -1.732573360990    1.720026663824   -4.183333593708
 H   -1.630573360990    0.045026663824   -3.645333593708
 H   -3.099573360990    0.616026663824   -4.438333593708
 H   -4.499763360990    2.492036663824   -1.552385593708
 H   -3.517003360990    3.317756663824   -2.839034593708
