17
0 1 
 C    0.572461310865   -0.143563494047    0.189557410396
 C    2.112461310865   -2.072563494047   -1.060442589604
 S    1.113461310865   -0.615563494047   -1.450442589604
 H    1.401461310865   -0.223563494047    0.894557410396
 H    0.252461310865    0.893436505953    0.147557410396
 H   -0.250538689135   -0.780563494047    0.513557410396
 H    2.824461310865   -1.802563494047   -0.279442589604
 H    2.692461310865   -2.343563494047   -1.938442589604
 H    1.525901310865   -2.936963494047   -0.715830589604
 C   -2.038538689135    1.295436505953    1.636557410396
 C   -3.042538689135    2.267436505953    2.238557410396
 H   -1.303538689135    1.875436505953    1.083557410396
 H   -1.544538689135    0.734436505953    2.430557410396
 H   -2.534538689135    0.601436505953    0.960557410396
 H   -3.763538689135    1.697436505953    2.821557410396
 H   -3.562328689135    2.795166505953    1.425341410396
 H   -2.530378689135    2.982426505953    2.899220410396
