27
0 1 
 C   -0.483350116997   -1.225019667859    2.171261747435
 C   -1.617350116997   -1.916019667859    1.433261747435
 C   -0.272350116997   -2.878019667859    4.382261747435
 S   -0.618350116997   -1.179019667859    3.985261747435
 H    0.451649883003   -1.722019667859    1.912261747435
 H   -0.409350116997   -0.197019667859    1.816261747435
 H   -1.685350116997   -2.943019667859    1.792261747435
 H   -1.359350116997   -1.956019667859    0.374261747435
 H    0.685649883003   -3.171019667859    3.951261747435
 H   -0.221350116997   -2.981019667859    5.465261747435
 H   -1.058350116997   -3.526019667859    3.994261747435
 H   -2.596940116997   -1.430169667859    1.553111747435
 C    0.379649883003    2.702980332141   -4.724738252565
 C    0.718649883003    0.409980332141   -1.071738252565
 C    0.690649883003   -0.230019667859   -2.304738252565
 C    0.680649883003    1.777980332141   -1.038738252565
 C    0.586649883003    0.501980332141   -3.491738252565
 C    0.584649883003    2.511980332141   -2.221738252565
 C    0.524649883003    1.885980332141   -3.462738252565
 H    0.813649883003   -0.160019667859   -0.159738252565
 H    0.744649883003   -1.302019667859   -2.338738252565
 H    0.727649883003    2.287980332141   -0.089738252565
 H    0.527649883003   -0.028019667859   -4.423738252565
 H    0.558649883003    3.589980332141   -2.164738252565
 H    1.184649883003    2.450980332141   -5.416738252565
 H    0.493649883003    3.757980332141   -4.466738252565
 H   -0.583700116997    2.560820332141   -5.236358252565
