16
0 1 
 C    1.385464012188   -0.457319931051   -1.698880947634
 C    0.021464012188   -1.145319931051   -1.896880947634
 H    1.359464012188    0.559680068949   -2.088880947634
 H    1.627464012188   -0.419319931051   -0.638880947634
 H    2.166464012188   -1.024319931051   -2.205880947634
 H   -0.765535987812   -0.487319931051   -1.526880947634
 H    0.023464012188   -2.047319931051   -1.284880947634
 H   -0.164305987812   -1.425029931051   -2.944380947634
 C   -0.081535987812    1.050680068949    1.396119052366
 C   -1.330535987812    0.558680068949    2.187119052366
 H    0.475464012188    1.789680068949    1.971119052366
 H    0.571464012188    0.198680068949    1.217119052366
 H   -0.387535987812    1.484680068949    0.443119052366
 H   -0.962535987812    0.103680068949    3.107119052366
 H   -1.986215987812    1.400164068949    2.455419052366
 H   -1.896405987812   -0.213271931051    1.645009052366
