19
1 1 
 C    1.866250735480   -0.395025761880   -2.754289769756
 O    0.536250735480    0.077974238120   -2.670289769756
 H    0.176250735480    0.113974238120   -3.570289769756
 H    2.442250735480    0.206974238120   -3.457289769756
 H    1.845250735480   -1.429025761880   -3.104289769756
 H    2.307270735480   -0.352228761880   -1.747479769756
 C   -0.205749264520   -0.879025761880    2.906710230244
 C   -0.569749264520    0.296974238120    0.758710230244
 N   -0.882749264520    0.218974238120   -0.500289769756
 N   -0.489749264520   -0.813025761880    1.475710230244
 N   -0.391749264520    1.464974238120    1.293710230244
 H   -0.999749264520   -0.677025761880   -0.944289769756
 H   -0.775749264520    1.013974238120   -1.109289769756
 H   -0.725749264520   -1.678025761880    1.009710230244
 H   -0.192749264520    1.532974238120    2.275710230244
 H   -0.583749264520    2.295974238120    0.757710230244
 H   -0.758749264520   -1.724025761880    3.321710230244
 H   -0.577749264520    0.007974238120    3.420710230244
 H    0.858210735480   -1.016034761880    3.150040230244
