17
0 1 
 C    1.422383136267    0.258835285573   -2.292495400573
 C    2.778383136267    0.158835285573   -1.608495400573
 H    1.545383136267    0.595835285573   -3.322495400573
 H    0.945383136267   -0.721164714427   -2.306495400573
 H    0.781383136267    0.956835285573   -1.755495400573
 H    2.629383136267   -0.053164714427   -0.550495400573
 H    3.338044136267    1.097575285573   -1.733183400573
 H    3.362259136267   -0.670311714427   -2.034645400573
 C   -0.645616863733    0.098835285573    2.364504599427
 C   -1.128616863733   -0.081164714427    0.942504599427
 O   -2.185616863733    0.420835285573    0.559504599427
 N   -0.362616863733   -0.806164714427    0.147504599427
 H   -0.683616863733   -1.001164714427   -0.787495400573
 H    0.481383136267   -1.227164714427    0.503504599427
 H    0.444383136267    0.152835285573    2.377504599427
 H   -0.948616863733   -0.792164714427    2.915504599427
 H   -1.062024263733    1.000695285573    2.837004599427
