31
0 1 
 C    1.077647148906   -1.522901301985    1.634894983982
 C    0.836647148906   -2.930901301985    2.183894983982
 C    0.054647148906   -0.480901301985    2.006894983982
 C    0.219647148906    0.649098698015    2.747894983982
 C   -1.822352851094    0.653098698015    1.999894983982
 N   -1.241352851094   -0.459901301985    1.554894983982
 N   -0.967352851094    1.334098698015    2.745894983982
 H    2.034647148906   -1.165901301985    2.015894983982
 H    1.148647148906   -1.568901301985    0.547894983982
 H    0.568647148906   -2.851901301985    3.238894983982
 H    1.140647148906    0.953098698015    3.226894983982
 H   -2.839352851094    0.954098698015    1.782894983982
 H   -1.146352851094    2.216098698015    3.188894983982
 H    1.760423148906   -3.520129301985    2.086694983982
 H    0.017621148906   -3.421882301985    1.637874983982
 C    2.676647148906    1.307098698015   -0.590105016018
 C    1.418647148906    0.798098698015   -1.258105016018
 C    1.441647148906   -0.211901301985   -2.227105016018
 C    0.190647148906    1.335098698015   -0.890105016018
 C    0.285647148906   -0.633901301985   -2.857105016018
 C   -0.974352851094    0.917098698015   -1.524105016018
 C   -0.925352851094   -0.044901301985   -2.520105016018
 O   -2.098352851094   -0.403901301985   -3.125105016018
 H    3.145647148906    0.481098698015   -0.055105016018
 H    2.393647148906    2.052098698015    0.154894983982
 H    2.375647148906   -0.687901301985   -2.481105016018
 H    0.132647148906    2.070098698015   -0.101105016018
 H    0.326647148906   -1.416901301985   -3.598105016018
 H   -1.929352851094    1.308098698015   -1.216105016018
 H   -1.889352851094   -0.927901301985   -3.920105016018
 H    3.410652148906    1.764868698015   -1.269575016018
