20
0 1 
 C   -1.300609416019    0.074672581907   -2.166815098450
 C   -1.555609416019    1.202672581907   -3.150815098450
 H   -0.241609416019   -0.178327418093   -2.149815098450
 H   -1.860609416019   -0.810327418093   -2.472815098450
 H   -1.626609416019    0.368672581907   -1.168815098450
 H   -1.233609416019    0.856672581907   -4.122815098450
 H   -0.961749416019    2.079562581907   -2.853525098450
 H   -2.624619416019    1.454502581907   -3.212515098450
 C    0.616390583981   -0.378327418093    0.956184901550
 C    1.187390583981   -1.699327418093    1.483184901550
 C   -0.635609416019    0.068672581907    1.704184901550
 O    1.599390583981    0.638672581907    1.106184901550
 H    0.383390583981   -0.486327418093   -0.098815098450
 H    1.371390583981   -1.601327418093    2.555184901550
 H   -0.896609416019    1.083672581907    1.399184901550
 H   -0.466609416019    0.051672581907    2.782184901550
 H   -1.472609416019   -0.580327418093    1.454184901550
 H    1.763390583981    0.770672581907    2.047184901550
 H    2.126830583981   -1.932857418093    0.960764901550
 H    0.455430583981   -2.500653418093    1.303984901550
