30
0 1 
 C   -2.217944526480   -3.478689387096    3.061126893799
 C   -0.730944526480   -3.520689387096    3.526126893799
 H   -2.861944526480   -3.904689387096    3.833126893799
 H   -2.521944526480   -2.454689387096    2.872126893799
 H   -2.339944526480   -4.051689387096    2.139126893799
 H   -0.099944526480   -3.093689387096    2.744126893799
 H   -0.416124526480   -4.557489387096    3.715716893799
 H   -0.556454526480   -2.908909387096    4.423496893799
 C   -1.435944526480   -1.032689387096    0.276126893799
 C   -2.453944526480   -0.262689387096    1.151126893799
 C   -0.139944526480   -0.289689387096    0.092126893799
 C    0.919055473520   -0.300689387096    0.938126893799
 C    0.186055473520    0.639310612904   -0.967873106201
 C    1.479055473520    1.157310612904   -0.695873106201
 C   -0.469944526480    1.097310612904   -2.128873106201
 C    2.117055473520    2.090310612904   -1.525873106201
 C    0.175055473520    2.037310612904   -2.957873106201
 C    1.456055473520    2.529310612904   -2.656873106201
 N    1.889055473520    0.566310612904    0.477126893799
 H   -1.205944526480   -1.964689387096    0.788126893799
 H   -1.816944526480   -1.263689387096   -0.723873106201
 H   -2.080944526480   -0.245689387096    2.177126893799
 H    0.902055473520   -0.931689387096    1.820126893799
 H    2.773055473520    0.751310612904    0.937126893799
 H   -1.458944526480    0.741310612904   -2.404873106201
 H    3.105055473520    2.445310612904   -1.261873106201
 H   -0.337944526480    2.378310612904   -3.845873106201
 H    1.927055473520    3.251310612904   -3.308873106201
 H   -3.428394526480   -0.772149387096    1.120976893799
 H   -2.536944526480    0.786290612904    0.830566893799
