31
1 1 
 C    0.004897222857    1.033886188208   -0.442376850200
 C    0.715897222857    1.648886188208   -1.635376850200
 C   -1.580102777143    2.133886188208   -1.882376850200
 C   -2.256102777143   -0.288113811792    0.975623149800
 C   -2.495102777143    0.725886188208   -0.133376850200
 O   -3.637102777143    1.090886188208   -0.414376850200
 N   -1.416102777143    1.197886188208   -0.778376850200
 H    0.269897222857   -0.017113811792   -0.351376850200
 H    0.247897222857    1.585886188208    0.464623149800
 H    0.785897222857    0.929886188208   -2.450376850200
 H    1.706897222857    2.011886188208   -1.363376850200
 H   -2.334102777143    2.888886188208   -1.664376850200
 H   -1.240102777143   -0.149113811792    1.339623149800
 H    0.044317222857    2.475226188208   -1.911309850200
 H   -0.588332777143    2.600226188208   -1.976796850200
 H   -1.867482777143    1.554076188208   -2.771892050200
 H   -2.939142777143   -0.218753811792    1.835072149800
 H   -2.317352777143   -1.301983811792    0.553356149800
 C    1.278897222857   -2.952113811792   -0.220376850200
 C    2.275897222857   -1.120113811792    1.110623149800
 N    2.249897222857   -1.881113811792    0.028623149800
 N    1.390897222857   -1.297113811792    2.072623149800
 N    3.177897222857   -0.167113811792    1.223623149800
 H    3.000897222857   -1.761113811792   -0.638376850200
 H    0.747897222857   -2.068113811792    2.023623149800
 H    1.434897222857   -0.750113811792    2.917623149800
 H    3.864897222857   -0.026113811792    0.499623149800
 H    3.218897222857    0.400886188208    2.055623149800
 H    0.286897222857   -2.653113811792    0.103623149800
 H    1.568897222857   -3.842113811792    0.342623149800
 H    1.243427222857   -3.211263811792   -1.288825850200
