23
0 1 
 C   -2.867298575781    1.835228355269   -1.057576410183
 C   -0.180298575781   -0.623771644731    0.007423589817
 C   -1.417298575781   -0.001771644731   -0.146576410183
 C    0.956701424219   -0.067771644731   -0.582576410183
 C   -1.531298575781    1.170228355269   -0.893576410183
 C    0.849701424219    1.108228355269   -1.326576410183
 C   -0.391298575781    1.723228355269   -1.480576410183
 H   -0.103298575781   -1.536771644731    0.581423589817
 H   -2.294298575781   -0.437771644731    0.309423589817
 H    1.919701424219   -0.544771644731   -0.474576410183
 H    1.726701424219    1.543228355269   -1.782576410183
 H   -2.696298575781    2.896228355269   -1.249576410183
 H   -3.417298575781    1.763228355269   -0.117576410183
 H   -0.471298575781    2.627228355269   -2.061576410183
 H   -3.484942575781    1.417008355269   -1.866037410183
 C    2.528701424219   -2.339771644731    1.764423589817
 C    1.717701424219   -2.294771644731    3.058423589817
 H    1.938701424219   -2.746771644731    0.944423589817
 H    2.841701424219   -1.329771644731    1.502423589817
 H    3.416701424219   -2.951771644731    1.906423589817
 H    0.843701424219   -1.657771644731    2.916423589817
 H    2.360701424219   -1.817771644731    3.795423589817
 H    1.404588424219   -3.284981644731    3.420975589817
