18
0 1 
 C   -1.302547042800    3.462862738443    1.161128396240
 C   -0.423547042800    2.275862738443    0.820128396240
 O    0.684452957200    2.144862738443    1.332128396240
 N   -0.919547042800    1.398862738443   -0.032871603760
 H   -0.406547042800    0.551862738443   -0.252871603760
 H   -1.820547042800    1.561862738443   -0.470871603760
 H   -1.754547042800    3.852862738443    0.248128396240
 H   -0.657547042800    4.232862738443    1.580128396240
 H   -2.089547042800    3.200052738443    1.883318396240
 C   -0.018547042800   -3.668137261557   -0.830871603760
 C    0.470452957200   -2.231137261557   -0.812871603760
 O   -0.309547042800   -1.297137261557   -0.950871603760
 N    1.767452957200   -2.043137261557   -0.635871603760
 H    0.826452957200   -4.326137261557   -0.618871603760
 H   -0.377547042800   -3.886137261557   -1.835871603760
 H    2.123452957200   -1.098137261557   -0.651871603760
 H    2.401452957200   -2.826137261557   -0.574871603760
 H   -0.804667042800   -3.853567261557   -0.084131603760
