18
0 1 
 C   -2.229137087634    1.657163916338    2.298933903170
 O   -2.224137087634    0.708163916338    1.234933903170
 H   -1.311137087634    0.633163916338    0.897933903170
 H   -1.243137087634    1.673163916338    2.767933903170
 H   -2.459727087634    2.662803916338    1.917460903170
 H   -2.965877087634    1.353803916338    3.057342903170
 C   -0.803137087634   -0.255836083662   -2.127066096830
 C    0.359862912366   -0.387836083662   -1.190066096830
 C    1.468862912366   -0.240836083662    0.704933903170
 C    1.560862912366   -0.999836083662   -1.361066096830
 N    0.324862912366    0.081163916338    0.107933903170
 N    2.234862912366   -0.894836083662   -0.163066096830
 H    1.729862912366   -0.012836083662    1.731933903170
 H   -1.686137087634    0.011163916338   -1.552066096830
 H   -0.975137087634   -1.246836083662   -2.551066096830
 H    3.155862912366   -1.270836083662    0.037933903170
 H    1.902862912366   -1.498836083662   -2.259066096830
 H   -0.668977087634    0.466613916338   -2.945646096830
