23
0 1 
 C   -1.944221983784   -2.481078504242    1.436099552578
 C   -3.378221983784   -2.925078504242    1.544099552578
 H   -1.282221983784   -3.176078504242    1.948099552578
 H   -1.661221983784   -2.430078504242    0.386099552578
 H   -1.826221983784   -1.492078504242    1.875099552578
 H   -3.976221983784   -2.317078504242    0.865099552578
 H   -3.788281983784   -2.819003504242    2.559279552578
 H   -3.450394983784   -3.971981504242    1.214279552578
 C   -0.692221983784    2.734921495758   -0.199900447422
 C    0.065778016216    0.389921495758    0.296099552578
 C    0.260778016216    1.583921495758   -0.369900447422
 C    0.979778016216   -0.653078504242    0.137099552578
 C    1.355778016216    1.720921495758   -1.205900447422
 C    2.052778016216   -0.508078504242   -0.703900447422
 C    2.255778016216    0.669921495758   -1.376900447422
 H   -0.784221983784    0.274921495758    0.952099552578
 H    0.831778016216   -1.585078504242    0.666099552578
 H   -1.706221983784    2.351921495758   -0.200900447422
 H   -0.599221983784    3.375921495758   -1.077900447422
 H    1.523778016216    2.651921495758   -1.729900447422
 H    2.754778016216   -1.314078504242   -0.842900447422
 H    3.101778016216    0.770921495758   -2.039900447422
 H   -0.520834983784    3.341921495758    0.701309552578
