30
0 1 
 C    1.533188609079    1.634343883439    4.008892925632
 C    2.199188609079    1.651343883439    0.281892925632
 C    1.813188609079    2.052343883439    1.554892925632
 C    2.704188609079    0.378343883439    0.080892925632
 C    1.917188609079    1.173343883439    2.630892925632
 C    2.816188609079   -0.501656116561    1.143892925632
 C    2.436188609079   -0.096656116561    2.421892925632
 H    2.108188609079    2.334343883439   -0.553107074368
 H    1.421188609079    3.049343883439    1.704892925632
 H    2.991188609079    0.067343883439   -0.910107074368
 H    3.191188609079   -1.500656116561    0.983892925632
 H    1.543188609079    0.805343883439    4.707892925632
 H    0.518188609079    2.017343883439    3.962892925632
 H    2.532188609079   -0.784656116561    3.249892925632
 H    2.208421409079    2.405933883439    4.407272925632
 C   -4.173811390921   -0.237656116561   -3.038107074368
 C   -0.884811390921   -0.090656116561   -1.146107074368
 C   -2.007811390921    0.292343883439   -1.871107074368
 C   -0.695811390921   -1.424656116561   -0.805107074368
 C   -2.947811390921   -0.651656116561   -2.265107074368
 C   -1.631811390921   -2.372656116561   -1.193107074368
 C   -2.748811390921   -1.982656116561   -1.917107074368
 H   -0.160811390921    0.650343883439   -0.839107074368
 H   -2.149811390921    1.334343883439   -2.123107074368
 H    0.179188609079   -1.720656116561   -0.241107074368
 H   -1.480811390921   -3.415656116561   -0.954107074368
 H   -4.529811390921   -1.085656116561   -3.625107074368
 H   -3.901811390921    0.555343883439   -3.737107074368
 H   -3.390811390921   -2.731656116561   -2.300107074368
 H   -4.992128390921    0.117063883439   -2.394267074368
