23
0 1 
 C   -2.229688387321    0.031467689248   -2.160723008310
 C    0.771311612679   -1.230532310752   -0.165723008310
 C   -0.020688387321   -0.789532310752   -1.234723008310
 C    0.234311612679   -1.300532310752    1.116276991690
 C   -1.357688387321   -0.426532310752   -1.021723008310
 C   -1.090688387321   -0.937532310752    1.334276991690
 C   -1.885688387321   -0.508532310752    0.269276991690
 H    1.797311612679   -1.516532310752   -0.340723008310
 H    0.405311612679   -0.721532310752   -2.225723008310
 H    0.845311612679   -1.643532310752    1.941276991690
 H   -1.513688387321   -0.999532310752    2.327276991690
 H   -1.652688387321    0.721467689248   -2.778723008310
 H   -3.085688387321    0.581467689248   -1.765723008310
 H   -2.916688387321   -0.238532310752    0.451276991690
 H   -2.591126687321   -0.797672310752   -2.786733008310
 C    3.064311612679    1.701467689248    0.784276991690
 C    1.975311612679    2.728467689248    1.056276991690
 H    2.657311612679    0.704467689248    0.936276991690
 H    3.383311612679    1.799467689248   -0.244723008310
 H    3.936311612679    1.854467689248    1.416276991690
 H    2.399311612679    3.720467689248    0.890276991690
 H    1.615451612679    2.661087689248    2.093566991690
 H    1.140355612679    2.587747689248    0.354106991690
