26
0 1 
 C    1.462675281789   -0.954042566282    0.363663606417
 C    1.995675281789   -2.286042566282   -0.136336393583
 C    0.240675281789   -0.494042566282   -0.372336393583
 C   -1.023324718211   -0.784042566282    0.133663606417
 C    0.355675281789    0.222957433718   -1.554336393583
 C   -2.153324718211   -0.357042566282   -0.544336393583
 C   -0.770324718211    0.655957433718   -2.239336393583
 C   -2.031324718211    0.363957433718   -1.732336393583
 H    1.222675281789   -1.062042566282    1.421663606417
 H    2.238675281789   -0.191042566282    0.276663606417
 H    1.232675281789   -3.050042566282    0.022663606417
 H   -1.125324718211   -1.343042566282    1.051663606417
 H    1.331675281789    0.457957433718   -1.953336393583
 H   -3.135324718211   -0.589042566282   -0.155336393583
 H   -0.672324718211    1.213957433718   -3.160336393583
 H   -2.915324718211    0.687957433718   -2.262336393583
 H    2.902405281789   -2.552992566282    0.426303606417
 H    2.200345281789   -2.234152566282   -1.215886393583
 C    0.196675281789    1.242957433718    2.957663606417
 C    1.121675281789    2.240957433718    2.273663606417
 H   -0.176324718211    1.645957433718    3.899663606417
 H   -0.653324718211    1.028957433718    2.309663606417
 H    0.727675281789    0.314957433718    3.162663606417
 H    1.464675281789    1.816957433718    1.330663606417
 H    1.988345281789    2.452907433718    2.917063606417
 H    0.575375281789    3.170027433718    2.053693606417
