16
0 1 
 C   -1.176566077099   -0.275771458520    1.149707692456
 C   -1.832566077099   -1.651771458520    1.373707692456
 H   -1.390566077099    0.081228541480    0.140707692456
 H   -1.567566077099    0.439228541480    1.872707692456
 H   -0.096566077099   -0.362771458520    1.276707692456
 H   -2.913566077099   -1.588771458520    1.241707692456
 H   -1.424386077099   -2.347821458520    0.626107692456
 H   -1.604396077099   -1.990161458520    2.395197692456
 C    1.747433922901    0.244228541480   -1.269292307544
 C    1.261433922901    1.680228541480   -1.258292307544
 H    2.457433922901    0.104228541480   -2.082292307544
 H    2.233433922901    0.018228541480   -0.319292307544
 H    0.898433922901   -0.425771458520   -1.406292307544
 H    0.554433922901    1.807228541480   -0.443292307544
 H    0.764903922901    1.932068541480   -2.206992307544
 H    2.091553922901    2.369828541480   -1.045332307544
