38
0 1 
 C    0.438423331140   -1.037142355228    2.331997832764
 C    0.090423331140   -1.599142355228    3.704997832764
 C    0.224423331140    0.442857644772    2.108997832764
 C   -1.060576668860    0.983857644772    2.076997832764
 C    1.307423331140    1.281857644772    1.867997832764
 C   -1.259576668860    2.343857644772    1.839997832764
 C    1.120423331140    2.639857644772    1.635997832764
 C   -0.161576668860    3.171857644772    1.618997832764
 O   -0.334576668860    4.504857644772    1.386997832764
 H    1.463423331140   -1.303142355228    2.091997832764
 H   -0.207576668860   -1.540142355228    1.629997832764
 H   -0.934576668860   -1.330142355228    3.942997832764
 H   -1.894576668860    0.349857644772    2.306997832764
 H    2.305423331140    0.876857644772    1.876997832764
 H   -2.259576668860    2.752857644772    1.838997832764
 H    1.960423331140    3.296857644772    1.492997832764
 H   -1.259576668860    4.759857644772    1.451997832764
 H    0.765243331140   -1.187922355228    4.470191832764
 H    0.132983331140   -2.694852355228    3.617716832764
 C   -0.501576668860   -3.380142355228   -0.535002167236
 C   -1.998576668860   -3.675142355228   -0.414002167236
 C   -0.134576668860   -2.228142355228   -1.450002167236
 C   -0.348576668860   -0.909142355228   -1.061002167236
 C    0.458423331140   -2.468142355228   -2.692002167236
 C    0.018423331140    0.150857644772   -1.881002167236
 C    0.822423331140   -1.409142355228   -3.526002167236
 C    0.600423331140   -0.097142355228   -3.118002167236
 O    0.952423331140    0.946857644772   -3.920002167236
 H   -0.053576668860   -3.248142355228    0.442997832764
 H   -0.001576668860   -4.262142355228   -0.941002167236
 H   -2.477576668860   -3.271142355228   -1.306002167236
 H   -0.866576668860   -0.686142355228   -0.144002167236
 H    0.637423331140   -3.485142355228   -3.018002167236
 H   -0.156576668860    1.167857644772   -1.560002167236
 H    1.278423331140   -1.598142355228   -4.487002167236
 H    0.927423331140    1.781857644772   -3.422002167236
 H   -2.435476668860   -3.217972355228    0.486064832764
 H   -2.154276668860   -4.763622355228   -0.445142167236
