22
0 1 
 C    1.393423053385    0.469527085364   -1.293708006457
 C    0.488423053385   -0.068472914636   -2.343708006457
 C    2.767423053385    0.530527085364   -1.963708006457
 H    1.396423053385   -0.168472914636   -0.408708006457
 H    1.082423053385    1.475527085364   -1.011708006457
 H    0.610423053385   -1.150472914636   -2.426708006457
 H   -0.554576946615    0.186527085364   -2.151708006457
 H    3.320423053385    1.377527085364   -1.550708006457
 H    0.866923053385    0.423285085364   -3.251958006457
 H    2.536763053385    0.706732085364   -3.024718006457
 H    3.345803053385   -0.385063914636   -1.770918006457
 C   -1.221576946615   -0.223472914636    1.400291993543
 C   -1.712576946615    0.861527085364    2.366291993543
 C   -1.705576946615   -1.561472914636    1.843291993543
 H   -1.588576946615   -0.009472914636    0.395291993543
 H   -0.131576946615   -0.238472914636    1.388291993543
 H   -1.485576946615    0.576527085364    3.395291993543
 H   -2.794576946615    0.947527085364    2.276291993543
 H   -1.315576946615   -1.743472914636    2.848291993543
 H   -2.796576946615   -1.569472914636    1.883291993543
 H   -1.244486946615    1.830943085364    2.140191993543
 H   -1.361226946615   -2.356883914636    1.165981993543
