18
-1 1 
 C    0.603740669007    0.227398477211   -1.160427212417
 C    1.606740669007    0.559398477211   -2.241427212417
 C    1.058740669007    0.483398477211    0.258572787583
 O    2.246740669007    0.771398477211    0.504572787583
 O    0.202740669007    0.362398477211    1.161572787583
 H   -0.330259330993    0.760398477211   -1.350427212417
 H    0.381740669007   -0.838601522789   -1.254427212417
 H    1.221740669007    0.170398477211   -3.184427212417
 H    2.539740669007    0.033398477211   -2.036427212417
 H    1.810020669007    1.632928477211   -2.368747212417
 C   -2.344259330993   -1.705601522789    0.408572787583
 C   -3.251259330993   -0.632601522789    1.006572787583
 H   -1.766259330993   -1.301601522789   -0.420427212417
 H   -1.660259330993   -2.071601522789    1.174572787583
 H   -2.949259330993   -2.539601522789    0.051572787583
 H   -3.769259330993   -1.075601522789    1.856572787583
 H   -4.001983330993   -0.261901522789    0.293132787583
 H   -2.652193330993    0.214188477211    1.372712787583
