30
0 1 
 C    2.034387760510    2.099314391382   -1.269787093818
 C    2.922387760510    2.731314391382   -2.297787093818
 C    1.296387760510    2.981314391382   -0.311787093818
 H    1.304387760510    1.478314391382   -1.787787093818
 H    2.711387760510    1.428314391382   -0.744787093818
 H    3.246387760510    1.903314391382   -2.931787093818
 H    1.904387760510    3.843314391382   -0.135787093818
 H    0.359387760510    3.305314391382   -0.766787093818
 H    3.818228760510    3.190854391382   -1.854737093818
 H    2.407712760510    3.435989391382   -2.967517093818
 H    1.088850760510    2.518346391382    0.664222906182
 C   -3.380612239490    0.277314391382    0.977212906182
 C   -0.073612239490   -0.973685608618   -0.281787093818
 C   -1.015612239490   -0.825685608618    0.765212906182
 C   -2.153612239490   -0.120685608618    0.238212906182
 C   -1.845612239490    0.144314391382   -1.063787093818
 C    1.142387760510   -1.615685608618   -0.110787093818
 C    1.427387760510   -2.130685608618    1.141212906182
 C   -0.703612239490   -1.356685608618    2.025212906182
 C    0.512387760510   -2.005685608618    2.200212906182
 N   -0.620612239490   -0.376685608618   -1.389787093818
 H   -0.213612239490   -0.340685608618   -2.318787093818
 H    1.839387760510   -1.720685608618   -0.932787093818
 H   -2.495612239490    0.675314391382   -1.751787093818
 H    2.367387760510   -2.643685608618    1.307212906182
 H   -1.400612239490   -1.257685608618    2.839212906182
 H   -3.779612239490    1.181314391382    0.514212906182
 H   -3.032612239490    0.572314391382    1.968212906182
 H    0.760387760510   -2.418685608618    3.171212906182
 H   -4.199512239490   -0.448840208618    1.087212906182
