24
0 1 
 C    2.926038152209    1.644356447661    0.252017950370
 C    3.173038152209    3.075356447661    0.728017950370
 H    3.751038152209    0.979356447661    0.497017950370
 H    2.013038152209    1.264356447661    0.711017950370
 H    2.798038152209    1.608356447661   -0.824982049630
 H    3.013038152209    3.092356447661    1.804017950370
 H    4.206052152209    3.387196447661    0.514387950370
 H    2.454153152209    3.762516447661    0.257897950370
 C   -2.144961847791   -2.511643552339    1.727017950370
 C   -0.239961847791    0.202356447661   -1.015982049630
 C   -0.865961847791    0.692356447661    0.121017950370
 C   -0.225961847791   -1.163643552339   -1.267982049630
 C   -1.477961847791   -0.185643552339    1.008017950370
 C   -0.841961847791   -2.037643552339   -0.375982049630
 C   -1.475961847791   -1.558643552339    0.767017950370
 O    0.358038152209    1.061356447661   -1.884982049630
 H   -0.871961847791    1.750356447661    0.310017950370
 H    0.257038152209    1.979356447661   -1.623982049630
 H    0.275038152209   -1.537643552339   -2.149982049630
 H   -1.946961847791    0.208356447661    1.901017950370
 H   -0.798961847791   -3.102643552339   -0.556982049630
 H   -1.827961847791   -2.269643552339    2.742017950370
 H   -1.785961847791   -3.522643552339    1.528017950370
 H   -3.243421847791   -2.502322552339    1.669657950370
