23
0 1 
 C    0.572310356771    0.881491462277   -2.989627572494
 C   -0.185689643229   -1.377508537723    0.637372427506
 C    1.111310356771   -0.963508537723    0.352372427506
 C   -1.238689643229   -1.122508537723   -0.244627572494
 C    1.356310356771   -0.193508537723   -0.808627572494
 C   -1.001689643229   -0.341508537723   -1.395627572494
 C    0.307310356771    0.091491462277   -1.706627572494
 H   -0.371689643229   -1.945508537723    1.537372427506
 H    1.919310356771   -1.194508537723    1.033372427506
 H   -2.233689643229   -1.479508537723   -0.030627572494
 H    2.357310356771    0.142491462277   -1.031627572494
 H   -1.818689643229   -0.120508537723   -2.067627572494
 H   -0.102689643229    0.496491462277   -3.747627572494
 H    1.586310356771    0.663491462277   -3.328627572494
 H    0.456846356771    1.972301462277   -2.907153572494
 C   -0.016689643229    0.915491462277    3.364372427506
 C   -0.841689643229    1.602491462277    2.262372427506
 H   -0.322689643229    1.279491462277    4.346372427506
 H   -0.181689643229   -0.160508537723    3.326372427506
 H    1.049310356771    1.096491462277    3.220372427506
 H   -0.451689643229    1.287491462277    1.296372427506
 H   -0.731920643229    2.693721462277    2.347030427506
 H   -1.902007643229    1.312201462277    2.300549427506
