16
0 1 
 C   -1.659910779145   -0.000513041965   -0.192068232854
 C   -2.812910779145    1.005486958035   -0.207068232854
 H   -0.870910779145    0.317486958035   -0.878068232854
 H   -1.235910779145   -0.074513041965    0.808931767146
 H   -2.002910779145   -0.999513041965   -0.467068232854
 H   -3.643910779145    0.586486958035    0.359931767146
 H   -3.149270779145    1.196466958035   -1.236818232854
 H   -2.490390779145    1.944386958035    0.266681767146
 C    2.094089220855    0.239486958035    0.085931767146
 C    2.379089220855   -1.242513041965    0.303931767146
 H    1.681089220855    0.398486958035   -0.911068232854
 H    1.375089220855    0.587486958035    0.828931767146
 H    3.003089220855    0.829486958035    0.200931767146
 H    2.836089220855   -1.358513041965    1.283931767146
 H    3.052779220855   -1.634544041965   -0.472248232854
 H    1.440919220855   -1.816398041965    0.326341767146
