20
0 1 
 C    0.247251895594   -2.546109031826    1.311535581445
 C    1.619251895594   -0.960109031826   -0.005464418555
 N    0.458251895594   -1.369109031826    0.486535581445
 N    2.728251895594   -1.634109031826    0.172535581445
 N    1.634251895594    0.134890968174   -0.716464418555
 H   -0.363748104406   -0.817109031826    0.227535581445
 H    0.823251895594   -2.461109031826    2.236535581445
 H    0.582251895594   -3.433109031826    0.768535581445
 H    2.711251895594   -2.491109031826    0.703535581445
 H    3.593251895594   -1.313109031826   -0.234464418555
 H    0.775251895594    0.688890968174   -0.777464418555
 H    2.514251895594    0.557890968174   -0.986464418555
 H   -0.814288104406   -2.682759031826    1.565413981445
 C   -2.777748104406    2.416890968174    0.156535581445
 C   -1.674748104406    1.555890968174   -0.382464418555
 O   -1.699748104406    0.314890968174   -0.267464418555
 O   -0.622748104406    2.103890968174   -0.769464418555
 H   -3.538748104406    1.774890968174    0.595535581445
 H   -3.217748104406    3.003890968174   -0.649464418555
 H   -2.395578104406    3.083160968174    0.943951281445
