19
-1 1 
 C    0.580771669942   -0.477949868469    4.236915931656
 C    0.576771669942   -0.086949868469    2.777915931656
 O   -0.510228330058    0.069050131531    2.183915931656
 O    1.700771669942    0.054050131531    2.239915931656
 H    1.065771669942    0.324050131531    4.796915931656
 H    1.212771669942   -1.341949868469    4.371915931656
 H   -0.412808330058   -0.649901068469    4.676505931656
 C   -0.478228330058    1.198050131531   -3.982084068344
 C   -0.560228330058   -1.209949868469   -1.243084068344
 C   -0.184228330058    0.937050131531   -1.392084068344
 C   -0.390228330058    0.473050131531   -2.659084068344
 N   -0.260228330058   -0.139949868469   -0.533084068344
 N   -0.672228330058   -0.862949868469   -2.535084068344
 H   -0.179228330058   -0.103949868469    0.487915931656
 H   -0.727228330058   -2.200949868469   -0.840084068344
 H    0.112771669942    1.933050131531   -1.155084068344
 H   -1.345228330058    0.800050131531   -4.509084068344
 H    0.374771669942    1.016050131531   -4.618084068344
 H   -0.618488330058    2.282530131531   -3.862791068344
