21
1 1 
 C    0.866211747243   -2.233476824973   -0.173706966742
 C    0.291211747243   -0.020476824973   -1.160706966742
 N    1.169211747243   -0.871476824973   -0.645706966742
 N   -0.956788252757   -0.379476824973   -1.386706966742
 N    0.699211747243    1.182523175027   -1.508706966742
 H    2.117211747243   -0.548476824973   -0.505706966742
 H   -1.264788252757   -1.322476824973   -1.172706966742
 H   -1.613788252757    0.291523175027   -1.769706966742
 H    1.669211747243    1.445523175027   -1.392706966742
 H    0.046211747243    1.852523175027   -1.901706966742
 H   -0.185788252757   -2.282476824973    0.106293033258
 H    1.478211747243   -2.443476824973    0.702293033258
 H    1.051811747243   -3.036296824973   -0.902426966742
 C   -0.744788252757    0.417523175027    2.532293033258
 C   -1.247788252757    1.849523175027    2.292293033258
 H   -0.056788252757    0.405523175027    3.376293033258
 H   -1.589788252757   -0.234476824973    2.754293033258
 H   -0.232788252757    0.053523175027    1.643293033258
 H   -1.763788252757    2.206523175027    3.182293033258
 H   -1.938788252757    1.845523175027    1.452293033258
 H   -0.438908252757    2.561923175027    2.072603033258
