17
0 1 
 C    0.771563655277   -1.675019816182    1.062482223916
 C    1.604563655277   -2.750019816182    1.731482223916
 H    0.487563655277   -1.974019816182    0.053482223916
 H   -0.128436344723   -1.495019816182    1.652482223916
 H    1.352563655277   -0.756019816182    1.022482223916
 H    1.843563655277   -2.416019816182    2.740482223916
 H    2.540473655277   -2.922009816182    1.179682223916
 H    1.030463655277   -3.686019816182    1.797072223916
 C    0.877563655277    1.308980183818   -1.017517776084
 C   -1.487436344723    1.424980183818    0.463482223916
 S   -0.849436344723    0.771980183818   -1.086517776084
 H    1.289563655277    1.125980183818   -0.028517776084
 H    1.465563655277    0.768980183818   -1.758517776084
 H    0.935563655277    2.377980183818   -1.227517776084
 H   -0.891436344723    1.048980183818    1.296482223916
 H   -2.504436344723    1.047980183818    0.576482223916
 H   -1.504126344723    2.524430183818    0.493962223916
