31
0 1 
 C   -0.765913931595   -2.979489378922   -0.346917284378
 C    0.115086068405   -2.786489378922   -1.563917284378
 C   -0.030913931595   -3.497489378922    0.874082715622
 O    1.212086068405   -3.488489378922    0.962082715622
 N   -0.805913931595   -3.945489378922    1.849082715622
 H   -1.225913931595   -2.032489378922   -0.076917284378
 H   -1.552913931595   -3.689489378922   -0.589917284378
 H    0.564086068405   -3.741489378922   -1.842917284378
 H    0.912086068405   -2.087489378922   -1.322917284378
 H   -0.390913931595   -4.257489378922    2.708082715622
 H   -1.813913931595   -3.886489378922    1.729082715622
 H   -0.465103931595   -2.388873378922   -2.409662284378
 C    2.436086068405    0.478510621078   -1.260917284378
 C    0.724086068405    0.008510621078    0.560082715622
 C    1.225086068405    0.783510621078   -0.418917284378
 C   -0.664913931595    1.736510621078    0.453082715622
 C    0.356086068405    1.910510621078   -0.516917284378
 C   -1.665913931595    2.668510621078    0.652082715622
 C    0.342086068405    3.041510621078   -1.331917284378
 C   -1.652913931595    3.798510621078   -0.180917284378
 C   -0.638913931595    3.990510621078   -1.119917284378
 N   -0.392913931595    0.563510621078    1.085082715622
 H    1.163086068405   -0.925489378922    0.892082715622
 H   -0.872913931595    0.165510621078    1.898082715622
 H    2.202086068405    0.767510621078   -2.279917284378
 H    2.587086068405   -0.600489378922   -1.263917284378
 H   -2.430913931595    2.518510621078    1.400082715622
 H    1.089086068405    3.181510621078   -2.098917284378
 H   -2.428913931595    4.545510621078   -0.074917284378
 H   -0.666913931595    4.863510621078   -1.744917284378
 H    3.382166068405    0.938259621078   -0.939093284378
