25
-1 1 
 C    0.336551455821   -2.644996900483    0.965666200577
 C   -1.055448544179   -2.376996900483    1.512666200577
 C    0.449551455821   -2.631996900483   -0.550333799423
 O   -0.557448544179   -2.482996900483   -1.264333799423
 O    1.607551455821   -2.820996900483   -1.024333799423
 H    1.002551455821   -1.880996900483    1.363666200577
 H    0.689551455821   -3.609996900483    1.337666200577
 H   -1.382448544179   -1.395996900483    1.165666200577
 H   -1.014178544179   -2.413017700483    2.611306200577
 H   -1.763118544179   -3.142197500483    1.160986200577
 C   -1.699448544179    2.914003099517    1.728666200577
 C    1.025551455821    0.842003099517    0.055666200577
 C    0.131551455821    1.348003099517    1.006666200577
 C    1.068551455821    1.403003099517   -1.197333799423
 C   -0.709448544179    2.405003099517    0.709666200577
 C    0.215551455821    2.444003099517   -1.508333799423
 C   -0.673448544179    2.925003099517   -0.566333799423
 H    1.683551455821    0.023003099517    0.301666200577
 H    0.101551455821    0.902003099517    1.990666200577
 H    1.756551455821    1.017003099517   -1.931333799423
 H    0.241551455821    2.879003099517   -2.495333799423
 H   -1.996448544179    3.933003099517    1.469666200577
 H   -1.211448544179    2.948003099517    2.703666200577
 H   -1.339448544179    3.735003099517   -0.833333799423
 H   -2.593118544179    2.276492099517    1.798856200577
