26
-1 1 
 C   -1.456343793961    4.029744566509   -0.948699195458
 C   -1.157343793961    3.566744566509    0.472300804542
 O   -1.108343793961    2.350744566509    0.723300804542
 O   -0.892343793961    4.401744566509    1.374300804542
 H   -0.559343793961    4.487744566509   -1.375699195458
 H   -2.240343793961    4.780744566509   -0.928699195458
 H   -1.776603793961    3.209394566509   -1.607839195458
 C   -0.839343793961   -4.150255433491    0.446300804542
 C   -1.503343793961   -1.681255433491    0.566300804542
 C    0.345656206039   -0.673255433491   -0.192699195458
 C   -0.616343793961   -2.685255433491    0.319300804542
 C    0.576656206039   -2.063255433491   -0.174699195458
 C    1.316656206039    0.227744566509   -0.598699195458
 C    2.536656206039   -0.279255433491   -1.009699195458
 C    1.830656206039   -2.544255433491   -0.577699195458
 C    2.785656206039   -1.652255433491   -1.005699195458
 N   -0.929343793961   -0.476255433491    0.264300804542
 H   -1.353343793961    0.440744566509    0.427300804542
 H   -2.513343793961   -1.820255433491    0.934300804542
 H    1.121656206039    1.288744566509   -0.587699195458
 H   -1.436343793961   -4.345255433491    1.338300804542
 H    0.128656206039   -4.624255433491    0.608300804542
 H    3.318656206039    0.394744566509   -1.330699195458
 H    2.044656206039   -3.599255433491   -0.521699195458
 H    3.759656206039   -2.018255433491   -1.294699195458
 H   -1.303743793961   -4.623267433491   -0.431529195458
