19
0 1 
 C   -2.029534232789    1.269099974210   -0.873577622493
 C   -1.114534232789    2.358099974210   -1.377577622493
 H   -2.725534232789    0.949099974210   -1.645577622493
 H   -1.437534232789    0.405099974210   -0.588577622493
 H   -2.577534232789    1.606099974210    0.001422377507
 H   -0.547534232789    1.965099974210   -2.222577622493
 H   -0.408534232789    2.573099974210   -0.575577622493
 H   -1.619674232789    3.283602974210   -1.691065622493
 C    0.933465767211   -0.838900025790    0.351422377507
 C    0.219465767211   -0.936900025790    1.684422377507
 C    2.056465767211   -1.882900025790    0.246422377507
 H    0.212465767211   -1.064900025790   -0.434577622493
 H    1.297465767211    0.172099974210    0.193422377507
 H    0.075465767211   -1.986900025790    1.948422377507
 H   -0.772534232789   -0.492900025790    1.584422377507
 H    2.886465767211   -1.857900025790    0.922422377507
 H    1.589465767211   -2.860900025790    0.399422377507
 H    0.749675767211   -0.420355025790    2.498089177507
 H    2.500015767211   -1.895281025790   -0.760113622493
