16
0 1 
 C   -0.132736186576    1.738314179122    0.368416349936
 C    1.115263813424    1.950314179122   -0.490583650064
 H   -0.677736186576    2.678314179122    0.467416349936
 H   -0.789736186576    1.008314179122   -0.102583650064
 H    0.144263813424    1.388314179122    1.362416349936
 H    1.638263813424    1.001314179122   -0.574583650064
 H    1.780333813424    2.700484179122   -0.037904650064
 H    0.828773813424    2.248374179122   -1.509936650064
 C    0.236263813424   -1.647685820878    0.112416349936
 C   -1.220736186576   -2.041685820878    0.010416349936
 H    0.851263813424   -2.522685820878    0.332416349936
 H    0.545263813424   -1.206685820878   -0.832583650064
 H    0.384263813424   -0.914685820878    0.904416349936
 H   -1.787736186576   -1.223685820878   -0.426583650064
 H   -1.569506186576   -2.217875820878    1.038676349936
 H   -1.324556186576   -2.930645820878   -0.629088650064
