32
0 1 
 C    0.602624773641   -2.153786637287   -1.211576302733
 C    0.979624773641   -3.587786637287   -0.870576302733
 C    1.587624773641   -1.647786637287   -2.254576302733
 C   -0.829375226359   -2.056786637287   -1.720576302733
 H    0.685624773641   -1.559786637287   -0.310576302733
 H    1.967624773641   -3.585786637287   -0.405576302733
 H    1.046624773641   -4.152786637287   -1.801576302733
 H    1.511624773641   -2.243786637287   -3.160576302733
 H    1.351624773641   -0.622786637287   -2.513576302733
 H    2.605624773641   -1.691786637287   -1.866576302733
 H   -1.532375226359   -2.277786637287   -0.918576302733
 H   -1.024375226359   -1.039786637287   -2.060576302733
 H   -0.984375226359   -2.746786637287   -2.550576302733
 H    0.277316773641   -4.127356637287   -0.218174302733
 C    1.599624773641    0.796213362713    0.330423697267
 C    2.513624773641    2.004213362713    0.505423697267
 C    0.151624773641    1.051213362713    0.689423697267
 C   -0.590375226359    2.028213362713    0.018423697267
 C   -0.476375226359    0.275213362713    1.655423697267
 C   -1.934375226359    2.239213362713    0.329423697267
 C   -1.824375226359    0.464213362713    1.959423697267
 C   -2.558375226359    1.436213362713    1.284423697267
 H    1.634624773641    0.531213362713   -0.719576302733
 H    1.989624773641   -0.037786637287    0.916423697267
 H    2.162624773641    2.811213362713   -0.138576302733
 H   -0.127375226359    2.619213362713   -0.757576302733
 H    0.081624773641   -0.486786637287    2.180423697267
 H   -2.494375226359    2.999213362713   -0.195576302733
 H   -2.303375226359   -0.150786637287    2.707423697267
 H   -3.604375226359    1.576213362713    1.516423697267
 H    3.543981773641    1.730713362713    0.234197697267
 H    2.481578773641    2.352353362713    1.548386697267
