32
1 1 
 C    0.832380946002   -0.038910761337    2.795137302341
 C    1.089380946002    0.384089238663    1.374137302341
 C    1.390380946002    1.638089238663    0.940137302341
 C    1.173380946002   -0.471910761337    0.213137302341
 C    1.541380946002    0.346089238663   -0.890862697659
 C    0.978380946002   -1.847910761337   -0.008862697659
 C    1.715380946002   -0.163910761337   -2.176862697659
 C    1.156380946002   -2.362910761337   -1.301862697659
 C    1.520380946002   -1.523910761337   -2.370862697659
 N    1.662380946002    1.623089238663   -0.406862697659
 H    0.092380946002   -0.840910761337    2.802137302341
 H    0.424380946002    0.809089238663    3.347137302341
 H    1.456380946002    2.513089238663    1.581137302341
 H    1.947380946002    2.443089238663   -0.931862697659
 H    0.672380946002   -2.492910761337    0.802137302341
 H    1.993380946002    0.480089238663   -2.999862697659
 H    1.008380946002   -3.419910761337   -1.481862697659
 H    1.647380946002   -1.941910761337   -3.360862697659
 H    1.754280946002   -0.382650761337    3.287007302341
 C   -2.185619053998   -1.001910761337   -1.151862697659
 C   -2.352619053998    0.722089238663    0.618137302341
 N   -2.460619053998   -0.531910761337    0.209137302341
 N   -1.977619053998    1.667089238663   -0.217862697659
 N   -2.604619053998    1.030089238663    1.871137302341
 H   -2.705619053998   -1.246910761337    0.890137302341
 H   -1.733619053998    1.429089238663   -1.162862697659
 H   -1.868619053998    2.617089238663    0.099137302341
 H   -2.792619053998    0.323089238663    2.565137302341
 H   -2.512619053998    1.986089238663    2.179137302341
 H   -1.946619053998   -2.065910761337   -1.089862697659
 H   -1.307619053998   -0.508910761337   -1.573862697659
 H   -3.041979053998   -0.887820761337   -1.832762697659
