35
0 1 
 C    0.457379693181    0.486080901275    2.746953204256
 C    0.973379693181    1.968080901275    0.642953204256
 C    1.212379693181    1.547080901275    1.996953204256
 C    1.907379693181    2.986080901275    0.331953204256
 C    2.242379693181    2.309080901275    2.444953204256
 C    0.078379693181    1.550080901275   -0.348046795744
 C    0.120379693181    2.150080901275   -1.589046795744
 C    1.041379693181    3.164080901275   -1.867046795744
 C    1.949379693181    3.598080901275   -0.912046795744
 N    2.675379693181    3.166080901275    1.452953204256
 H   -0.644620306819    0.776080901275   -0.141046795744
 H   -0.560620306819    1.822080901275   -2.356046795744
 H    1.048379693181    3.600080901275   -2.850046795744
 H    1.032379693181   -0.433919098725    2.740953204256
 H   -0.445620306819    0.299080901275    2.171953204256
 H    2.679379693181    2.245080901275    3.431953204256
 H    3.438379693181    3.828080901275    1.559953204256
 H    2.663379693181    4.378080901275   -1.122046795744
 H    0.185639693181    0.781670901275    3.771053204256
 C    1.124379693181   -2.820919098725   -1.860046795744
 C   -0.531620306819   -1.990919098725   -0.151046795744
 C   -0.240620306819   -2.848919098725   -1.205046795744
 C   -1.777620306819   -1.938919098725    0.439953204256
 C   -1.262620306819   -3.621919098725   -1.729046795744
 C   -2.777620306819   -2.729919098725   -0.057046795744
 C   -2.535620306819   -3.563919098725   -1.150046795744
 O   -4.016620306819   -2.619919098725    0.518953204256
 H    0.256379693181   -1.360919098725    0.237953204256
 H   -1.974620306819   -1.277919098725    1.270953204256
 H    1.553379693181   -1.836919098725   -1.670046795744
 H    0.985379693181   -2.894919098725   -2.936046795744
 H   -1.078620306819   -4.270919098725   -2.574046795744
 H   -3.336620306819   -4.166919098725   -1.552046795744
 H   -4.658620306819   -3.203919098725    0.100953204256
 H    1.842359693181   -3.591369098725   -1.542380795744
