29
1 1 
 C    2.416627839721    1.747476730733    0.496748058611
 C    0.574627839721    2.412476730733   -1.072251941389
 N    1.793627839721    1.948476730733   -0.817251941389
 N   -0.143372160279    2.821476730733   -0.051251941389
 N    0.067627839721    2.525476730733   -2.290251941389
 H    2.450627839721    2.451476730733   -1.396251941389
 H    0.241627839721    2.786476730733    0.880748058611
 H   -1.051372160279    3.246476730733   -0.186251941389
 H    0.040627839721    3.499476730733   -2.607251941389
 H   -0.901372160279    2.214476730733   -2.364251941389
 H    1.757627839721    1.152476730733    1.134748058611
 H    2.592627839721    2.711476730733    0.983748058611
 H    3.378677839721    1.220626730733    0.413748058611
 C   -2.258372160279   -0.659523269267    2.733748058611
 C   -1.416372160279   -0.424523269267    0.392748058611
 C   -1.433372160279   -1.172523269267    1.577748058611
 C   -0.661372160279   -0.831523269267   -0.698251941389
 C    0.106627839721   -1.981523269267   -0.559251941389
 C   -0.654372160279   -2.320523269267    1.707748058611
 C    0.127627839721   -2.733523269267    0.625748058611
 O    0.901627839721   -2.424523269267   -1.556251941389
 H   -2.023372160279    0.470476730733    0.319748058611
 H   -0.687372160279   -0.266523269267   -1.612251941389
 H   -2.594372160279   -1.485523269267    3.362748058611
 H   -3.140372160279   -0.168523269267    2.323748058611
 H   -0.657372160279   -2.887523269267    2.627748058611
 H    1.370627839721   -3.219523269267   -1.285251941389
 H    0.736627839721   -3.623523269267    0.714748058611
 H   -1.609632160279    0.020246730733    3.305628058611
