29
0 1 
C   -0.208774864611    2.181439765026    2.165962453043
C    1.068225135389    0.761439765026    0.523962453043
C    0.309225135389    1.890439765026    0.772962453043
C    1.547225135389    0.522439765026   -0.743037546957
C    1.273225135389    1.405439765026   -1.783037546957
C    0.018225135389    2.749439765026   -0.284037546957
C    0.514225135389    2.506439765026   -1.554037546957
H    1.295225135389    0.069439765026    1.323962453043
H    2.149225135389   -0.349560234974   -0.934037546957
H   -0.198774864611    3.258439765026    2.332962453043
H    0.470225135389    1.734439765026    2.891962453043
H    1.659225135389    1.212439765026   -2.774037546957
H   -0.591774864611    3.623439765026   -0.118037546957
H    0.274225135389    3.170439765026   -2.367037546957
H   -1.220884864611    1.790330765026    2.346696453043
C   -0.958774864611   -2.366560234974    0.211962453043
C   -2.215774864611   -2.912560234974    0.902962453043
C    0.261225135389   -3.088560234974    0.769962453043
C   -1.088774864611   -2.523560234974   -1.320037546957
H   -0.862774864611   -1.303560234974    0.436962453043
H   -2.327774864611   -3.959560234974    0.621962453043
H    0.147225135389   -4.167560234974    0.652962453043
H    1.145225135389   -2.769560234974    0.217962453043
H    0.426225135389   -2.842560234974    1.818962453043
H   -1.982774864611   -2.024560234974   -1.690037546957
H   -0.219774864611   -2.074560234974   -1.803037546957
H   -1.121774864611   -3.581560234974   -1.573037546957
H   -3.118404864611   -2.348601234974    0.625113453043
H   -2.107404864611   -2.842479234974    1.995365453043
