27
0 1 
 C   -0.515627138953    2.625850152846    1.297024103107
 C    0.382372861047    3.099850152846    2.432024103107
 C    0.003372861047    3.162850152846   -0.029975896893
 H   -0.515627138953    1.539850152846    1.282024103107
 H   -1.535627138953    2.980850152846    1.455024103107
 H    0.484372861047    4.185850152846    2.394024103107
 H    1.371372861047    2.668850152846    2.268024103107
 H   -0.054627138953    4.253850152846   -0.015975896893
 H    1.047372861047    2.866850152846   -0.158975896893
 H    0.027437861047    2.807550152846    3.431314103107
 H   -0.586319138953    2.776480152846   -0.874355896893
 C   -2.764627138953   -0.627149847154   -1.260975896893
 C   -0.950627138953   -0.907149847154    0.471024103107
 C   -1.335627138953   -0.932149847154   -0.867975896893
 C    0.362372861047   -1.183149847154    0.841024103107
 C   -0.378627138953   -1.234149847154   -1.835975896893
 C    1.306372861047   -1.484149847154   -0.134975896893
 C    0.936372861047   -1.510149847154   -1.474975896893
 O    2.592372861047   -1.754149847154    0.225024103107
 H   -1.678627138953   -0.659149847154    1.231024103107
 H    0.656372861047   -1.160149847154    1.881024103107
 H   -2.765627138953   -0.118149847154   -2.225975896893
 H   -3.171627138953    0.069850152846   -0.532975896893
 H   -0.661627138953   -1.257149847154   -2.881975896893
 H    1.668372861047   -1.741149847154   -2.237975896893
 H    3.161372861047   -1.894149847154   -0.540975896893
 H   -3.413801138953   -1.512319847154   -1.331985896893
