12
0 1 
 C   -0.280877084521   -2.003144751154   -1.075934240170
 O    0.417122915479   -1.401144751154    0.010065759830
 H    0.427122915479   -2.030144751154    0.755065759830
 H   -0.074877084521   -3.074144751154   -1.084934240170
 H   -1.360517084521   -1.824750751154   -0.963903240170
 H    0.092802915479   -1.560868751154   -2.011216240170
 C   -0.540877084521    2.071855248846    0.932065759830
 O    0.384122915479    1.431855248846    0.074065759830
 H    0.327122915479    0.464855248846    0.193065759830
 H   -0.135877084521    3.037855248846    1.239065759830
 H   -0.698877084521    1.455855248846    1.818065759830
 H   -1.508767084521    2.225821248846    0.432579759830
