23
0 1 
 C   -0.739966314805    1.256903084173   -2.678979927010
 C   -1.988966314805    0.872903084173   -3.457979927010
 H   -0.190966314805    0.355903084173   -2.408979927010
 H   -0.089966314805    1.880903084173   -3.290979927010
 H   -1.012966314805    1.791903084173   -1.769979927010
 H   -1.679966314805    0.337903084173   -4.355979927010
 H   -2.573332314805    1.759503084173   -3.745139927010
 H   -2.608974314805    0.189007084173   -2.859749927010
 C   -0.230966314805    0.951903084173    2.961020072990
 C    0.959033685195   -1.334096915827   -0.478979927010
 C    1.806033685195   -0.385096915827    0.068020072990
 C   -0.273966314805   -1.539096915827    0.087020072990
 C    1.425033685195    0.353903084173    1.181020072990
 C   -0.666966314805   -0.794096915827    1.193020072990
 C    0.180033685195    0.157903084173    1.751020072990
 H    1.271033685195   -1.922096915827   -1.332979927010
 H    2.793033685195   -0.268096915827   -0.338979927010
 H   -0.940966314805   -2.284096915827   -0.325979927010
 H    2.106033685195    1.076903084173    1.609020072990
 H   -1.637966314805   -0.967096915827    1.632020072990
 H   -1.310966314805    0.888903084173    3.099020072990
 H    0.011033685195    1.997903084173    2.764020072990
 H    0.277023685195    0.626269084173    3.880750072990
