16
0 1 
 C   -0.719562829303   -0.964445682599    1.908211658993
 C   -0.265562829303   -2.109445682599    1.011211658993
 H    0.122437170697   -0.612445682599    2.497211658993
 H   -1.074562829303   -0.132445682599    1.310211658993
 H   -1.527562829303   -1.288445682599    2.563211658993
 H    0.664437170697   -1.824445682599    0.522211658993
 H   -0.113622829303   -3.013148682599    1.619681658993
 H   -1.011092829303   -2.312051682599    0.228185658993
 C    0.489437170697    1.220554317401   -0.764788341007
 C    0.493437170697    1.846554317401   -2.155788341007
 H    1.221437170697    0.415554317401   -0.709788341007
 H    0.741437170697    1.979554317401   -0.026788341007
 H   -0.494562829303    0.836554317401   -0.528788341007
 H   -0.278562829303    2.612554317401   -2.208788341007
 H    0.319347170697    1.074253317401   -2.919492341007
 H    1.457677170697    2.345273317401   -2.333335341007
