23
0 1 
 C   -1.828726456238    0.797963222430    2.225255378166
 C   -0.538726456238    0.467963222430    2.967255378166
 H   -2.452726456238    1.457963222430    2.827255378166
 H   -1.579726456238    1.292963222430    1.287255378166
 H   -2.388726456238   -0.097036777570    1.968255378166
 H    0.053273543762   -0.204036777570    2.347255378166
 H   -0.753144456238   -0.023977777570    3.927473378166
 H    0.053241543762    1.380791222430    3.129487378166
 C   -1.762726456238   -1.311036777570   -1.246744621834
 C   -0.453726456238   -0.630036777570   -0.972744621834
 C   -0.269726456238    0.714963222430   -1.300744621834
 C    0.622273543762   -1.350036777570   -0.464744621834
 C    0.977273543762    1.344963222430   -1.099744621834
 C    1.845273543762   -0.706036777570   -0.251744621834
 C    2.012273543762    0.629963222430   -0.536744621834
 H   -2.553726456238   -0.746036777570   -0.752744621834
 H   -1.757726456238   -2.316036777570   -0.822744621834
 H   -1.088726456238    1.285963222430   -1.709744621834
 H    0.515273543762   -2.401036777570   -0.230744621834
 H    1.107273543762    2.388963222430   -1.349744621834
 H    2.674273543762   -1.266036777570    0.159255378166
 H    2.965273543762    1.105963222430   -0.351744621834
 H   -1.979423456238   -1.366287777570   -2.323772621834
