16
0 1 
 C   -1.363672968671   -0.653549993398    0.213701376064
 C   -1.816672968671   -1.893549993398    0.985701376064
 H   -1.294672968671   -0.872549993398   -0.852298623936
 H   -2.095672968671    0.142450006602    0.358701376064
 H   -0.404672968671   -0.314549993398    0.588701376064
 H   -2.785672968671   -2.188549993398    0.579701376064
 H   -1.122052968671   -2.734259993398    0.841761376064
 H   -1.967762968671   -1.723839993398    2.061981376064
 C    1.716327031329    0.597450006602   -0.900298623936
 C    1.465327031329    1.955450006602   -0.295298623936
 H    2.496327031329    0.660450006602   -1.659298623936
 H    2.042327031329   -0.086549993398   -0.118298623936
 H    0.818327031329    0.190450006602   -1.357298623936
 H    0.746327031329    1.894450006602    0.522701376064
 H    1.114947031329    2.641820006602   -1.080236623936
 H    2.436677031329    2.321620006602    0.068571376064
