30
1 1 
 C   -0.401327230446    2.737763895917   -0.407382088945
 C    0.413672769554    3.271763895917    0.759617911055
 N    0.019672769554    3.375763895917   -1.683382088945
 H   -0.263327230446    1.652763895917   -0.464382088945
 H   -1.460327230446    2.939763895917   -0.222382088945
 H    0.355672769554    4.362763895917    0.773617911055
 H    1.457672769554    2.975763895917    0.630617911055
 H    1.002672769554    3.221763895917   -1.871382088945
 H   -0.502327230446    3.005763895917   -2.469382088945
 H   -0.142327230446    4.375763895917   -1.660382088945
 H    0.038749769554    2.883833895917    1.718237911055
 C   -2.354327230446   -0.518236104083   -0.471382088945
 C   -3.259327230446   -1.752236104083   -0.570382088945
 C   -0.925327230446   -0.823236104083   -0.078382088945
 C    0.031672769554   -1.125236104083   -1.046382088945
 C   -0.540327230446   -0.798236104083    1.260617911055
 C    1.346672769554   -1.401236104083   -0.685382088945
 C    0.772672769554   -1.074236104083    1.630617911055
 C    1.716672769554   -1.375236104083    0.654617911055
 O    3.002672769554   -1.645236104083    1.014617911055
 H   -2.355327230446   -0.009236104083   -1.436382088945
 H   -2.761327230446    0.178763895917    0.256617911055
 H   -2.914327230446   -2.358236104083   -1.410382088945
 H   -0.251327230446   -1.148236104083   -2.092382088945
 H   -1.268327230446   -0.550236104083    2.020617911055
 H    2.078672769554   -1.632236104083   -1.448382088945
 H    1.066672769554   -1.051236104083    2.670617911055
 H    3.571672769554   -1.785236104083    0.248617911055
 H   -4.301754030446   -1.450086104083   -0.749412088945
 H   -3.185836230446   -2.371146104083    0.336007911055
