24
0 1 
 C   -0.032374311822    3.314616735590    0.660971799425
 C   -0.496374311822   -0.470383264410    0.630971799425
 C   -1.215374311822   -0.662383264410   -0.554028200575
 C   -0.129374311822    0.814616735590    1.023971799425
 C   -0.471374311822    1.936616735590    0.251971799425
 C   -1.608374311822    0.440616735590   -1.285028200575
 C   -1.235374311822    1.737616735590   -0.895028200575
 O   -1.643374311822   -1.885383264410   -0.989028200575
 H   -0.219374311822   -1.328383264410    1.220971799425
 H    0.445625688178    0.944616735590    1.931971799425
 H   -2.206374311822    0.294616735590   -2.163028200575
 H   -2.190374311822   -1.824383264410   -1.775028200575
 H    0.739625688178    3.635616735590   -0.034028200575
 H    0.434625688178    3.232616735590    1.633971799425
 H   -1.531374311822    2.585616735590   -1.496028200575
 H   -0.803151311822    4.099126735590    0.681941799425
 C    2.661625688178   -2.311383264410   -0.032028200575
 C    3.585625688178   -2.144383264410    1.218971799425
 H    1.857625688178   -1.579383264410   -0.007028200575
 H    3.251625688178   -2.142383264410   -0.934028200575
 H    2.248625688178   -3.318383264410   -0.088028200575
 H    4.355625688178   -2.912383264410    1.175971799425
 H    3.022415688178   -2.226083264410    2.160311799425
 H    4.071455688178   -1.157613264410    1.234801799425
