20
0 1 
 C    0.853709641752    1.396298223310    0.395022220240
 C    2.152709641752    2.036298223310   -0.021977779760
 C    0.671709641752    1.412298223310    1.917022220240
 H    0.010709641752    1.889298223310   -0.085977779760
 H    0.876709641752    0.357298223310    0.073022220240
 H    2.950709641752    1.595298223310    0.582022220240
 H    2.124709641752    3.103298223310    0.200022220240
 H    1.555709641752    0.973298223310    2.383022220240
 H    0.541709641752    2.439298223310    2.265022220240
 H    2.407089641752    1.875148223310   -1.079957779760
 H   -0.220360358248    0.814578223310    2.155662220240
 C   -1.193290358248   -1.253701776690   -1.216977779760
 C   -0.486290358248   -2.597701776690   -1.051977779760
 O   -1.761290358248   -0.835701776690    0.000022220240
 H   -0.480290358248   -0.505701776690   -1.562977779760
 H   -1.978290358248   -1.345701776690   -1.966977779760
 H   -0.099290358248   -2.867701776690   -2.035977779760
 H   -2.724290358248   -0.985701776690   -0.070977779760
 H   -1.187710358248   -3.381731776690   -0.730557779760
 H    0.379469641752   -2.527111776690   -0.377087779760
