30
0 1 
 C    2.237241200698    0.604807886486   -1.686624172421
 C    0.908241200698   -0.572192113514    0.211375827579
 C    2.087241200698    0.037807886486   -0.322624172421
 C    1.203241200698   -0.984192113514    1.537375827579
 C    3.021241200698   -0.008192113514    0.664375827579
 C   -0.364758799302   -0.820192113514   -0.306624172421
 C   -1.301758799302   -1.465192113514    0.493375827579
 C   -0.986758799302   -1.854192113514    1.803375827579
 C    0.269241200698   -1.617192113514    2.344375827579
 N    2.499241200698   -0.617192113514    1.782375827579
 H   -0.602758799302   -0.516192113514   -1.314624172421
 H   -2.290758799302   -1.673192113514    0.106375827579
 H   -1.738758799302   -2.345192113514    2.407375827579
 H    2.976241200698    1.407807886486   -1.664624172421
 H    1.282241200698    1.047807886486   -1.973624172421
 H    4.032241200698    0.381807886486    0.580375827579
 H    3.005241200698   -0.749192113514    2.653375827579
 H    0.513241200698   -1.916192113514    3.355375827579
 H    2.527321200698   -0.140085813514   -2.442261172421
 C   -2.645758799302    1.827807886486   -1.517624172421
 C   -3.519758799302    1.147807886486   -2.575624172421
 C   -2.671758799302    3.358807886486   -1.550624172421
 H   -2.536758799302    1.370807886486   -0.566624172421
 H   -1.636758799302    1.610807886486   -1.874624172421
 H   -3.143758799302    1.419807886486   -3.558624172421
 H   -2.087758799302    3.705807886486   -2.404624172421
 H   -3.691758799302    3.715807886486   -1.680624172421
 H   -4.568038799302    1.470820886486   -2.493361172421
 H   -3.474058799302    0.053129886486   -2.477691172421
 H   -2.285788799302    3.830700886486   -0.635011172421
