19
0 1 
 C   -1.260046017921   -0.625821870535    1.641945332437
 C   -1.311046017921   -0.718821870535    3.170945332437
 H   -2.252046017921   -0.443821870535    1.223945332437
 H   -0.599046017921    0.191178129465    1.354945332437
 H   -0.861046017921   -1.545821870535    1.213945332437
 H   -0.347046017921   -1.086821870535    3.507945332437
 H   -2.092416017921   -1.426488870535    3.485066332437
 H   -1.449426017921    0.264157129465    3.644869332437
 C    0.474953982079    0.214178129465   -1.327054667563
 C    0.470953982079    0.199178129465   -2.864054667563
 C    1.648953982079    0.953178129465   -0.715054667563
 H   -0.446046017921    0.668178129465   -0.969054667563
 H    0.513953982079   -0.812821870535   -0.961054667563
 H    1.321953982079   -0.392821870535   -3.200054667563
 H    1.543953982079    2.028178129465   -0.858054667563
 H    1.680953982079    0.753178129465    0.356945332437
 H    2.574953982079    0.604178129465   -1.169054667563
 H   -0.453236017921   -0.269705870535   -3.232874667563
 H    0.581513982079    1.208608129465   -3.286924667563
