20
0 1 
 C   -1.557340263574   -3.179384065874   -1.970886449496
 C   -0.909340263574   -2.090384065874   -1.136886449496
 O   -1.106340263574   -2.048384065874    0.099113550504
 O   -0.205340263574   -1.250384065874   -1.744886449496
 H   -0.789340263574   -3.712384065874   -2.527886449496
 H   -2.256340263574   -2.718384065874   -2.672886449496
 H   -2.103640263574   -3.927984065874   -1.378336449496
 C    1.204659736426    3.655615934126    1.074113550504
 C    0.628659736426    1.241615934126    0.928113550504
 N    0.504659736426    0.082615934126    1.532113550504
 N    0.943659736426    2.322615934126    1.630113550504
 N    0.490659736426    1.274615934126   -0.379886449496
 H    0.660659736426    0.000615934126    2.522113550504
 H    0.253659736426   -0.742384065874    0.988113550504
 H    0.965659736426    2.256615934126    2.642113550504
 H    0.635659736426    2.135615934126   -0.884886449496
 H    0.244659736426    0.425615934126   -0.885886449496
 H    0.748659736426    3.733615934126    0.086113550504
 H    2.283659736426    3.801615934126    0.984113550504
 H    0.774489736426    4.407915934126    1.751653550504
