20
0 1 
 C   -0.918647581274   -0.801924216883    2.053259856536
 C   -0.917647581274   -0.721924216883    0.554259856536
 C   -1.766647581274   -0.089924216883   -0.297740143464
 C   -0.166647581274   -1.019924216883   -1.488740143464
 N    0.073352418726   -1.294924216883   -0.212740143464
 N   -1.282647581274   -0.305924216883   -1.571740143464
 H   -0.911647581274    0.201075783117    2.449259856536
 H    0.020352418726   -1.259924216883    2.368259856536
 H   -2.649647581274    0.474075783117   -0.024740143464
 H    0.349352418726   -1.466924216883   -2.321740143464
 H   -1.690647581274    0.015075783117   -2.442740143464
 H   -1.747607581274   -1.388802216883    2.475639856536
 C    2.261352418726    1.225075783117    0.102259856536
 C    2.319352418726    2.603075783117    0.733259856536
 H    3.171352418726    1.027075783117   -0.458740143464
 H    2.178352418726    0.470075783117    0.878259856536
 H    1.397352418726    1.153075783117   -0.552740143464
 H    3.280352418726    2.696075783117    1.217259856536
 H    2.195982418726    3.384895783117   -0.030630143464
 H    1.551022418726    2.714805783117    1.512479856536
