26
0 1 
 C    2.528751460195    1.013638096178    1.126678630962
 C    2.995751460195    2.229638096178    1.945678630962
 C    3.663751460195    0.056638096178    0.740678630962
 H    1.779751460195    0.463638096178    1.696678630962
 H    2.056751460195    1.382638096178    0.214678630962
 H    3.709751460195    2.795638096178    1.346678630962
 H    4.105751460195   -0.398361903822    1.594678630962
 H    3.489027460195    1.904301096178    2.873488630962
 H    2.164495460195    2.919007096178    2.154928630962
 H    3.247825460195   -0.750705903822    0.120028630962
 H    4.480286460195    0.564369096178    0.206378630962
 C   -0.811248539805   -2.620361903822   -1.701321369038
 C   -0.865248539805    1.034638096178   -0.618321369038
 C   -1.983248539805    1.062638096178    0.209678630962
 C   -0.488248539805   -0.162361903822   -1.240321369038
 C   -1.210248539805   -1.332361903822   -1.024321369038
 C   -2.710248539805   -0.107361903822    0.427678630962
 C   -2.319248539805   -1.299361903822   -0.177321369038
 H   -0.297248539805    1.937638096178   -0.791321369038
 H   -2.290248539805    1.986638096178    0.678678630962
 H    0.369751460195   -0.172361903822   -1.899321369038
 H   -3.573248539805   -0.098361903822    1.076678630962
 H   -1.023248539805   -3.456361903822   -1.032321369038
 H    0.266751460195   -2.605361903822   -1.871321369038
 H   -2.887248539805   -2.200361903822    0.000678630962
 H   -1.316833759805   -2.788172903822   -2.663721369038
