17
0 1 
 C   -1.087400684262    0.666936993403   -0.492010538395
 C   -1.987400684262   -0.058063006597   -1.514010538395
 O   -1.432400684262    2.028936993403   -0.350010538395
 H   -1.179400684262    0.177936993403    0.478989461605
 H   -0.048400684262    0.598936993403   -0.813010538395
 H   -1.693400684262   -1.109063006597   -1.552010538395
 H   -0.934400684262    2.526936993403   -1.027010538395
 H   -1.894263684262    0.384906993403   -2.516559538395
 H   -3.035819684262   -0.003573006597   -1.185607538395
 C    2.073599315738   -0.829063006597    0.756989461605
 C    2.493599315738   -1.995063006597    1.653989461605
 H    1.097599315738   -1.022063006597    0.317989461605
 H    2.006599315738    0.077936993403    1.358989461605
 H    2.807599315738   -0.665063006597   -0.032010538395
 H    1.815599315738   -2.043063006597    2.504989461605
 H    3.483599315738   -1.780063006597    2.055989461605
 H    2.538209315738   -2.967843006597    1.142419461605
