18
0 1 
 C    1.032851887250   -0.861581609401    2.311089480764
 C    1.659851887250   -1.482581609401    1.067089480764
 O    1.434851887250   -1.033581609401   -0.054910519236
 N    2.460851887250   -2.518581609401    1.247089480764
 H    0.242851887250   -0.186581609401    1.980089480764
 H    1.787851887250   -0.272581609401    2.835089480764
 H    2.922851887250   -2.856581609401    0.414089480764
 H    2.877851887250   -2.680581609401    2.148089480764
 H    0.595471887250   -1.614841609401    2.982879480764
 C   -2.863148112750    0.691418390599   -0.981910519236
 C   -1.589148112750    1.488418390599   -1.111910519236
 O   -0.618148112750    1.254418390599   -0.398910519236
 N   -1.578148112750    2.440418390599   -2.028910519236
 H   -3.326148112750    0.578418390599   -1.963910519236
 H   -3.545148112750    1.263418390599   -0.351910519236
 H   -0.740148112750    2.992418390599   -2.140910519236
 H   -2.394148112750    2.614418390599   -2.595910519236
 H   -2.696398112750   -0.299711609401   -0.534860519236
