18
-1 1 
 C   -2.209193085749   -1.587762568806    0.753868706130
 C   -2.787193085749   -1.770762568806   -0.677131293870
 H   -3.021193085749   -1.507762568806    1.477868706130
 H   -1.585193085749   -2.441762568806    1.014868706130
 H   -1.607193085749   -0.679762568806    0.797868706130
 H   -1.968193085749   -1.846762568806   -1.395131293870
 H   -3.409073085749   -0.899422568806   -0.930171293870
 H   -3.385073085749   -2.693232568806   -0.716941293870
 C    0.672806914251    0.171237431194   -0.907131293870
 C    1.969806914251    0.284237431194   -1.718131293870
 C    0.791806914251    0.826237431194    0.474868706130
 O    1.842806914251    0.649237431194    1.134868706130
 O   -0.179193085749    1.496237431194    0.909868706130
 H   -0.104193085749    0.675237431194   -1.478131293870
 H    0.402806914251   -0.878762568806   -0.784131293870
 H    2.812806914251   -0.031762568806   -1.105131293870
 H    2.115806914251    1.323237431194   -2.019131293870
 H    1.943986914251   -0.341232568806   -2.622631293870
