22
1 1 
 C    0.011924610541    0.099738529199   -1.884388505701
 C    0.958924610541    2.086738529199   -0.767388505701
 N    0.433924610541    1.741738529199    0.400611494299
 N    0.804924610541    1.326738529199   -1.838388505701
 N    1.651924610541    3.198738529199   -0.874388505701
 H   -0.010075389459    0.841738529199    0.543611494299
 H    0.490924610541    2.417738529199    1.158611494299
 H    1.314924610541    1.604738529199   -2.680388505701
 H    2.076924610541    3.449738529199   -1.769388505701
 H    1.797924610541    3.791738529199   -0.060388505701
 H    0.185924610541   -0.511261470801   -1.000388505701
 H    0.302924610541   -0.485261470801   -2.759388505701
 H   -1.051015389459    0.370015529199   -1.968668505701
 C   -2.199075389459   -2.612261470801    1.835611494299
 C   -0.930075389459   -2.056261470801    1.228611494299
 O   -0.642075389459   -0.863261470801    1.319611494299
 N   -0.158075389459   -2.916261470801    0.583611494299
 H   -1.944075389459   -3.391261470801    2.553611494299
 H   -2.762075389459   -3.058261470801    1.026611494299
 H    0.728924610541   -2.598261470801    0.225611494299
 H   -0.400075389459   -3.896261470801    0.568611494299
 H   -2.811495389459   -1.840588470801    2.324961494299
