19
0 1 
 C   -1.145402166434   -0.708556878260    0.334553943232
 C   -2.444402166434   -0.027556878260    0.788553943232
 C   -1.571402166434   -1.922556878260   -0.461446056768
 H   -0.539402166434   -0.979556878260    1.201553943232
 H   -0.617402166434   -0.031556878260   -0.327446056768
 H   -2.315402166434    0.486443121740    1.741553943232
 H   -2.766402166434    0.680443121740    0.027553943232
 H   -1.449402166434   -1.770556878260   -1.533446056768
 H   -3.177292166434   -0.844079878260    0.867051943232
 H   -2.626292166434   -2.068293878260   -0.185830056768
 H   -1.026212166434   -2.806981878260   -0.100122056768
 C    1.856597833566    1.166443121740   -0.625446056768
 C    3.238597833566    1.439443121740   -0.017446056768
 H    1.268597833566    0.657443121740    0.127553943232
 H    1.371597833566    2.109443121740   -0.873446056768
 H    1.942597833566    0.558443121740   -1.522446056768
 H    3.115597833566    2.078443121740    0.858553943232
 H    3.787597833566    2.013443121740   -0.761446056768
 H    3.817797833566    0.545419121740    0.256872943232
