23
0 1 
 C    1.543239554153    2.117756711581   -0.547263500611
 C    0.842239554153   -0.301243288419   -0.413263500611
 C    1.220239554153    0.873756711581    0.240736499389
 C    0.634239554153   -1.472243288419    0.303736499389
 C    0.810239554153   -1.473243288419    1.670736499389
 C    1.371239554153    0.860756711581    1.623736499389
 C    1.173239554153   -0.319243288419    2.343736499389
 H    0.725239554153   -0.304243288419   -1.488263500611
 H    0.346239554153   -2.383243288419   -0.201263500611
 H    2.005239554153    1.812756711581   -1.488263500611
 H    2.298239554153    2.684756711581   -0.000263500611
 H    0.639239554153   -2.381243288419    2.225736499389
 H    1.669239554153    1.757756711581    2.145736499389
 H    1.303239554153   -0.334243288419    3.417736499389
 H    0.693419554153    2.776976711581   -0.777993500611
 C   -2.712760445847   -0.073243288419   -1.845263500611
 C   -4.005760445847   -0.397243288419   -2.580263500611
 H   -2.902760445847    0.648756711581   -1.054263500611
 H   -2.282760445847   -0.978243288419   -1.417263500611
 H   -1.993760445847    0.360756711581   -2.538263500611
 H   -3.767760445847   -1.030243288419   -3.436263500611
 H   -4.477149445847    0.528946711581   -2.940783500611
 H   -4.688144445847   -0.966133288419   -1.931643500611
