30
0 1 
 C    0.556490138933    2.628823708792   -2.048018380689
 C    0.366490138933    3.784823708792   -1.099018380689
 C    1.926490138933    2.101823708792   -1.652018380689
 H    0.538490138933    2.969823708792   -3.084018380689
 H   -0.180509861067    1.877823708792   -1.853018380689
 H   -0.424509861067    4.455823708792   -1.433018380689
 H    0.163490138933    3.417823708792   -0.090018380689
 H    1.814490138933    1.449823708792   -0.787018380689
 H    1.353400138933    4.269215708792   -1.135998380689
 H    2.467040138933    3.012027708792   -1.353138380689
 H    2.393890138933    1.524958708792   -2.463658380689
 C   -0.720509861067    0.615823708792    3.017981619311
 C   -1.519509861067    0.831823708792    0.597981619311
 C   -0.826509861067    0.201823708792    1.586981619311
 C   -0.583509861067   -0.949176291208   -0.392018380689
 C   -0.212509861067   -0.945176291208    0.979981619311
 C   -0.155509861067   -1.930176291208   -1.279018380689
 C    0.615490138933   -1.971176291208    1.454981619311
 C    0.662490138933   -2.933176291208   -0.783018380689
 C    1.041490138933   -2.960176291208    0.567981619311
 N   -1.379509861067    0.146823708792   -0.587018380689
 H   -2.082509861067    1.748823708792    0.727981619311
 H   -1.693509861067    0.487823708792   -1.500018380689
 H   -0.698509861067   -0.272176291208    3.640981619311
 H   -1.617509861067    1.183823708792    3.258981619311
 H   -0.428509861067   -1.887176291208   -2.323018380689
 H    0.944490138933   -1.970176291208    2.479981619311
 H    1.078490138933   -3.667176291208   -1.449018380689
 H    1.685490138933   -3.742176291208    0.930981619311
 H    0.150340138933    1.248451708792    3.244691619311
