28
0 1 
 C    0.460336648564   -1.611865366283   -4.107453296947
 C    1.363336648564    0.419134633717   -1.076453296947
 C    0.597336648564   -0.605865366283   -1.686453296947
 C    0.994336648564   -0.676865366283   -3.065453296947
 C    1.952336648564    0.274134633717   -3.233453296947
 C    0.307336648564    0.050134633717    1.012546703053
 C    1.227336648564    0.755134633717    0.261546703053
 C   -0.465663351436   -0.969865366283    0.440546703053
 C   -0.330663351436   -1.304865366283   -0.904453296947
 N    2.179336648564    0.934134633717   -2.048453296947
 H    0.199336648564    0.284134633717    2.062546703053
 H    1.826336648564    1.538134633717    0.698546703053
 H   -1.178663351436   -1.503865366283    1.056546703053
 H   -0.929663351436   -2.086865366283   -1.346453296947
 H    2.868336648564    1.667134633717   -1.917453296947
 H    2.449336648564    0.488134633717   -4.169453296947
 H    0.702336648564   -1.208865366283   -5.092453296947
 H   -0.627663351436   -1.633865366283   -4.019453296947
 H    0.843230648564   -2.640355366283   -4.032603296947
 C   -2.072663351436    0.450134633717    3.860546703053
 C   -3.590663351436    0.406134633717    3.954546703053
 O   -1.553663351436    1.455134633717    4.708546703053
 H   -1.668663351436   -0.510865366283    4.142546703053
 H   -1.792663351436    0.665134633717    2.829546703053
 H   -3.869663351436    0.324134633717    4.984546703053
 H   -1.723663351436    1.180134633717    5.619546703053
 H   -3.992336351436   -0.479975366283    3.441256703053
 H   -3.999826351436    1.356474633717    3.581126703053
