16
0 1 
 C    0.863314330527    1.955778395901   -0.002349445787
 C    0.965314330527    1.817778395901   -1.519349445787
 H    0.136314330527    1.253778395901    0.394650554213
 H    1.836314330527    1.747778395901    0.445650554213
 H    0.565314330527    2.971778395901    0.259650554213
 H    1.338314330527    0.819778395901   -1.742349445787
 H   -0.053575669473    1.932418395901   -1.917735445787
 H    1.662994330527    2.561328395901   -1.932121445787
 C   -1.167685669473   -1.175221604099    0.878650554213
 C   -0.655685669473   -2.597221604099    0.638650554213
 H   -1.346685669473   -0.670221604099   -0.070349445787
 H   -2.097685669473   -1.208221604099    1.442650554213
 H   -0.433685669473   -0.629221604099    1.470650554213
 H   -0.413685669473   -3.065221604099    1.587650554213
 H    0.209844330527   -2.566591604099   -0.039524445787
 H   -1.466375669473   -3.160641604099    0.153540554213
