21
1 1 
 C   -0.525764839770   -0.272835125305   -2.661229532052
 C    0.541235160230    0.734164874695   -0.653229532052
 N    0.546235160230   -0.119835125305   -1.667229532052
 N   -0.482764839770    1.540164874695   -0.438229532052
 N    1.588235160230    0.787164874695    0.146770467948
 H    1.369235160230   -0.696835125305   -1.772229532052
 H   -1.228764839770    1.634164874695   -1.132229532052
 H   -0.471764839770    2.183164874695    0.334770467948
 H    2.385235160230    0.183164874695   -0.027229532052
 H    1.621235160230    1.435164874695    0.915770467948
 H   -0.167764839770    0.124164874695   -3.612229532052
 H   -1.414764839770    0.288164874695   -2.390229532052
 H   -0.821810839770   -1.319825125305   -2.822969532052
 C   -0.210764839770   -1.025835125305    2.251770467948
 C   -1.427764839770   -1.662835125305    2.918770467948
 H   -0.016764839770   -1.493835125305    1.286770467948
 H   -0.373764839770    0.042164874695    2.122770467948
 H    0.666235160230   -1.150835125305    2.888770467948
 H   -1.687764839770   -1.035835125305    3.773770467948
 H   -1.188966839770   -2.663375125305    3.308500467948
 H   -2.293693839770   -1.680755125305    2.240650467948
