34
0 1 
 C   -0.889094887603    0.677613860779   -2.071915282231
 C   -1.483094887603    0.130613860779   -3.369915282231
 C   -1.733094887603    0.494613860779   -0.817915282231
 C   -1.788094887603    1.498613860779    0.148084717769
 C   -2.436094887603   -0.685386139221   -0.595915282231
 C   -2.541094887603    1.345613860779    1.304084717769
 C   -3.185094887603   -0.854386139221    0.565084717769
 C   -3.231094887603    0.163613860779    1.516084717769
 O   -3.967094887603    0.005613860779    2.652084717769
 H    0.073905112397    0.194613860779   -1.908915282231
 H   -0.703094887603    1.735613860779   -2.207915282231
 H   -1.598094887603   -0.948386139221   -3.262915282231
 H   -1.242094887603    2.414613860779   -0.008915282231
 H   -2.393094887603   -1.496386139221   -1.306915282231
 H   -2.576094887603    2.139613860779    2.038084717769
 H   -3.736094887603   -1.767386139221    0.734084717769
 H   -3.917094887603    0.778613860779    3.226084717769
 H   -0.807525887603    0.354293860779   -4.208705282231
 H   -2.470361887603    0.579173860779   -3.554575282231
 C    5.392905112397    0.557613860779   -0.016915282231
 C    1.454905112397   -1.134386139221    0.165084717769
 C    1.651905112397    0.202613860779    0.478084717769
 C    2.537905112397   -1.927386139221   -0.197915282231
 C    2.930905112397    0.752613860779    0.407084717769
 C    3.813905112397   -1.380386139221   -0.245915282231
 C    4.015905112397   -0.033386139221    0.030084717769
 H    0.460905112397   -1.560386139221    0.212084717769
 H    0.814905112397    0.817613860779    0.777084717769
 H    2.391905112397   -2.973386139221   -0.431915282231
 H    3.076905112397    1.796613860779    0.647084717769
 H    4.653905112397   -2.008386139221   -0.497915282231
 H    5.322905112397    1.562613860779   -0.433915282231
 H    6.014905112397   -0.030386139221   -0.691915282231
 H    5.875415112397    0.605863860779    0.970434717769
