17
1 1 
 C    1.286882318726   -0.261417377937    0.421838415630
 C    2.266882318726    0.243582622063   -0.642161584370
 N    1.364882318726   -1.737417377937    0.647838415630
 H    1.497882318726    0.266582622063    1.356838415630
 H    0.272882318726    0.003582622063    0.113838415630
 H    3.290882318726    0.043582622063   -0.323161584370
 H    2.139882318726    1.322582622063   -0.748161584370
 H    2.313882318726   -2.033417377937    0.837838415630
 H    0.793882318726   -2.008417377937    1.438838415630
 H    1.017882318726   -2.277417377937   -0.144161584370
 H    2.079612318726   -0.242610377937   -1.610951584370
 C   -2.997117681274    0.707582622063   -0.481161584370
 O   -1.713117681274    1.076582622063   -0.016161584370
 H   -1.793117681274    1.912582622063    0.470838415630
 H   -3.405117681274    1.507582622063   -1.098161584370
 H   -3.666117681274    0.574582622063    0.371838415630
 H   -2.946067681274   -0.227787377937   -1.057771584370
