24
0 1 
 C    0.295875634935    2.922241813436    0.582802793140
 C   -0.404124365065   -0.120758186564   -1.589197206860
 C   -1.802124365065   -0.191758186564   -1.554197206860
 C    0.264875634935    0.892241813436   -0.891197206860
 C   -0.447124365065    1.839241813436   -0.167197206860
 C   -2.525124365065    0.751241813436   -0.828197206860
 C   -1.847124365065    1.768241813436   -0.145197206860
 H    0.158875634935   -0.851758186564   -2.152197206860
 H   -2.317124365065   -0.971758186564   -2.098197206860
 H    1.345875634935    0.934241813436   -0.920197206860
 H   -3.604124365065    0.710241813436   -0.797197206860
 H   -0.343124365065    3.805241813436    0.608802793140
 H    1.187875634935    3.203241813436    0.024802793140
 H   -2.418124365065    2.509241813436    0.394802793140
 H    0.570695634935    2.654541813436    1.613732793140
 C    1.490875634935   -1.996758186564    0.924802793140
 C    0.947875634935   -2.621758186564    2.207802793140
 O    2.848875634935   -2.357758186564    0.743802793140
 H    0.898875634935   -2.327758186564    0.071802793140
 H    1.424875634935   -0.910758186564    1.002802793140
 H    0.827875634935   -3.686758186564    2.022802793140
 H    3.311875634935   -1.598758186564    0.328802793140
 H   -0.017564365065   -2.167258186564    2.474932793140
 H    1.697825634935   -2.486648186564    3.001102793140
