27
0 1 
 C    1.409334448021    2.652027038158   -1.596930628746
 C   -0.238665551979   -0.580972961842   -0.558930628746
 C   -0.317665551979    0.808027038158   -0.826930628746
 C    0.996334448021    1.247027038158   -1.224930628746
 C    1.786334448021    0.141027038158   -1.188930628746
 C   -1.337665551979   -1.325972961842   -0.156930628746
 C   -2.542665551979   -0.670972961842   -0.011930628746
 C   -1.552665551979    1.451027038158   -0.671930628746
 C   -2.652665551979    0.705027038158   -0.261930628746
 N    1.057334448021   -0.952972961842   -0.789930628746
 H    1.423334448021   -1.898972961842   -0.695930628746
 H   -1.253665551979   -2.388972961842    0.005069371254
 H    2.838334448021    0.135027038158   -1.423930628746
 H   -3.417665551979   -1.227972961842    0.298069371254
 H   -1.642665551979    2.511027038158   -0.863930628746
 H    0.548334448021    3.177027038158   -2.009930628746
 H    2.166334448021    2.593027038158   -2.376930628746
 H   -3.611665551979    1.192027038158   -0.136930628746
 H    1.802054448021    3.229255038158   -0.746880628746
 C    0.664334448021   -1.211972961842    3.089069371254
 C    1.981334448021   -1.929972961842    3.368069371254
 H   -0.150665551979   -1.703972961842    3.615069371254
 H    0.729334448021   -0.182972961842    3.440069371254
 H    0.461334448021   -1.201972961842    2.022069371254
 H    2.139334448021   -1.923972961842    4.439069371254
 H    1.934684448021   -2.966249761842    3.002069371254
 H    2.826014448021   -1.393298961842    2.911459371254
