16
0 1 
 C    1.277820230521   -0.675770077565    0.780025119373
 C    2.578820230521   -1.353770077565    1.206025119373
 H    1.209820230521   -0.627770077565   -0.305974880627
 H    0.416820230521   -1.225770077565    1.151025119373
 H    1.226820230521    0.336229922435    1.183025119373
 H    2.703820230521   -1.209770077565    2.272025119373
 H    3.441360230521   -0.897850077565    0.697935119373
 H    2.529892230521   -2.433786077565    1.003115119373
 C   -1.767179769479    0.286229922435   -1.162974880627
 C   -2.091179769479    1.742229922435   -0.829974880627
 H   -0.786179769479    0.208229922435   -1.631974880627
 H   -1.744179769479   -0.292770077565   -0.240974880627
 H   -2.519179769479   -0.123770077565   -1.837974880627
 H   -1.339179769479    2.108229922435   -0.137974880627
 H   -2.046995769479    2.367929922435   -1.733604880627
 H   -3.072349769479    1.803729922435   -0.336494880627
