17
0 1 
 C    0.657444046581    0.221920163390    1.385119416722
 C    2.168444046581    0.053920163390    1.557119416722
 O    0.366444046581    1.461920163390    0.792119416722
 H    0.256444046581   -0.586079836610    0.771119416722
 H    0.182444046581    0.183920163390    2.367119416722
 H    2.529444046581    0.907920163390    2.120119416722
 H    0.864444046581    2.197920163390    1.228119416722
 H    2.641054046581   -0.002999836610    0.565459416722
 H    2.400824046581   -0.864079836610    2.116839416722
 C   -1.233555953419   -0.283079836610   -1.797880583278
 C   -2.003555953419   -1.619079836610   -2.010880583278
 H   -1.490555953419    0.435920163390   -2.574880583278
 H   -1.520555953419    0.144920163390   -0.837880583278
 H   -0.157555953419   -0.463079836610   -1.803880583278
 H   -3.060555953419   -1.377079836610   -2.064880583278
 H   -1.704945953419   -2.087919836610   -2.960100583278
 H   -1.859845953419   -2.326789836610   -1.181130583278
