17
0 1 
 C   -2.088747145105    0.517419900024    2.104299448755
 O   -1.460747145105    0.444419900024    0.843299448755
 H   -1.920747145105    0.987419900024    0.182299448755
 H   -1.600747145105   -0.181580099976    2.782299448755
 H   -3.135747145105    0.228419900024    1.990299448755
 H   -2.027497145105    1.531289900024    2.526566448755
 C    1.210252854895    0.152419900024   -0.824700551245
 C    1.188252854895   -0.108580099976   -2.326700551245
 C    1.482252854895   -1.097580099976    0.018299448755
 H    2.017252854895    0.867419900024   -0.663700551245
 H    0.302252854895    0.654419900024   -0.556700551245
 H    2.149252854895   -0.535580099976   -2.628700551245
 H    0.691252854895   -1.833580099976   -0.127700551245
 H    2.436252854895   -1.537580099976   -0.278700551245
 H    1.010042854895    0.831359900024   -2.869610551245
 H    0.406652854895   -0.840970099976   -2.577102551245
 H    1.517722854895   -0.838430099976    1.086748448755
