16
0 1 
 C   -0.738533818160   -0.762111656400    1.111700970938
 C   -1.473533818160   -1.852111656400    1.883700970938
 H    0.196466181840   -1.152111656400    0.706700970938
 H   -1.370533818160   -0.430111656400    0.289700970938
 H   -0.515533818160    0.087888343600    1.755700970938
 H   -2.460533818160   -1.517111656400    2.172700970938
 H   -0.920309818160   -2.076275056400    2.807656970938
 H   -1.579931818160   -2.746722656400    1.252550970938
 C    0.439466181840    1.502888343600   -1.208299029062
 C    1.775466181840    1.109888343600   -1.788299029062
 H    0.098466181840    2.424888343600   -1.675299029062
 H   -0.285533818160    0.714888343600   -1.407299029062
 H    0.525466181840    1.645888343600   -0.131299029062
 H    2.149466181840    0.243888343600   -1.256299029062
 H    2.444966181840    1.971193343600   -1.647160729062
 H    1.683436181840    0.850922343600   -2.853413029062
