30
0 1 
 C    0.951239430478   -0.711800546611   -2.024756852038
 C    1.631239430478    0.473199453389    0.066243147962
 C    1.969239430478    0.064199453389   -1.193756852038
 C    2.520239430478    1.203199453389    0.826243147962
 C    3.287239430478    0.325199453389   -1.621756852038
 C    3.792239430478    1.459199453389    0.412243147962
 C    4.201239430478    0.997199453389   -0.820756852038
 H    0.673239430478    0.211199453389    0.478243147962
 H    2.195239430478    1.555199453389    1.784243147962
 H   -0.040760569522   -0.288800546611   -1.861756852038
 H    0.938239430478   -1.737800546611   -1.666756852038
 H    3.623239430478    0.009199453389   -2.594756852038
 H    4.472239430478    2.013199453389    1.046243147962
 H    5.208239430478    1.182199453389   -1.169756852038
 H    1.166689430478   -0.717560546611   -3.103436852038
 C   -2.043760569522    1.236199453389    0.484243147962
 C   -2.584760569522    2.013199453389    1.682243147962
 C   -2.305760569522   -0.248800546611    0.522243147962
 C   -1.953760569522   -1.231800546611    1.398243147962
 C   -3.070760569522   -2.153800546611   -0.272756852038
 N   -2.972760569522   -0.845800546611   -0.528756852038
 N   -2.464760569522   -2.421800546611    0.886243147962
 H   -2.527760569522    1.633199453389   -0.406756852038
 H   -0.982760569522    1.434199453389    0.375243147962
 H   -3.648760569522    1.820199453389    1.818243147962
 H   -1.375760569522   -1.108800546611    2.298243147962
 H   -3.527760569522   -2.888800546611   -0.924756852038
 H   -2.356760569522   -3.358800546611    1.276243147962
 H   -2.377120569522    3.084519453389    1.543813147962
 H   -2.019610569522    1.773069453389    2.594903147962
