19
0 1 
 C   -1.208294491272    0.976509606131    0.293622571405
 C   -0.724294491272    1.976509606131   -0.758377428595
 C   -2.054294491272   -0.137490393869   -0.308377428595
 H   -0.380294491272    0.591509606131    0.877622571405
 H   -1.894294491272    1.507509606131    0.952622571405
 H   -1.438294491272    2.029509606131   -1.581377428595
 H    0.236705508728    1.649509606131   -1.155377428595
 H   -2.512294491272    0.229509606131   -1.233377428595
 H   -1.406294491272   -0.979490393869   -0.575377428595
 H   -0.626034491272    2.985789606131   -0.332127428595
 H   -2.851754491272   -0.456770393869    0.378732571405
 C    1.425705508728   -1.698490393869    0.844622571405
 C    2.488705508728   -1.053490393869   -0.049377428595
 H    0.886705508728   -0.957490393869    1.424622571405
 H    0.725705508728   -2.279490393869    0.240622571405
 H    1.903705508728   -2.373490393869    1.551622571405
 H    3.219705508728   -1.808490393869   -0.341377428595
 H    2.993195508728   -0.235570393869    0.485882571405
 H    2.006455508728   -0.659200393869   -0.956007428595
