16
-1 1 
 C    0.687223332510   -0.319846414076   -0.452163394682
 C    1.926223332510    0.528153585924   -0.714163394682
 C   -0.250776667490   -0.362846414076   -1.651163394682
 O   -0.444776667490   -1.473846414076   -2.198163394682
 O   -0.789776667490    0.703153585924   -2.031163394682
 H    0.989223332510   -1.332846414076   -0.176163394682
 H    0.134223332510    0.118153585924    0.364836605318
 H    2.384223332510    0.198153585924   -1.646163394682
 H    2.637178332510    0.441263585924    0.120698605318
 H    1.659881932510    1.592073585924   -0.798613394682
 C   -0.681776667490    0.826153585924    3.810836605318
 O   -0.312776667490    0.052153585924    2.677836605318
 H   -0.932776667490   -0.683846414076    2.607836605318
 H   -0.607776667490    0.210153585924    4.707836605318
 H   -0.002582167490    1.685603585924    3.911057605318
 H   -1.718453667490    1.178233585924    3.704343605318
