36
0 1 
 C   -1.752576186958   -0.804632954893   -0.839281961092
 C   -2.427576186958   -2.131632954893   -1.168281961092
 C   -2.661576186958    0.138367045107   -0.086281961092
 C   -3.535576186958    0.959367045107   -0.795281961092
 C   -2.635576186958    0.190367045107    1.326718038908
 C   -4.379576186958    1.848367045107   -0.117281961092
 C   -3.488576186958    1.066367045107    1.993718038908
 C   -4.364576186958    1.875367045107    1.271718038908
 H   -0.863576186958   -0.987632954893   -0.243281961092
 H   -1.435576186958   -0.328632954893   -1.769281961092
 H   -3.298576186958   -1.918632954893   -1.791281961092
 H   -3.564576186958    0.910367045107   -1.873281961092
 H   -1.950576186958   -0.425632954893    1.891718038908
 H   -5.062576186958    2.484367045107   -0.664281961092
 H   -3.474576186958    1.116367045107    3.074718038908
 H   -5.026576186958    2.549367045107    1.799718038908
 H   -2.753186186958   -2.641578954893   -0.249621961092
 H   -1.766404186958   -2.802218954893   -1.736761961092
 C    1.945423813042   -0.112632954893   -0.841281961092
 C    1.918423813042   -0.539632954893   -2.286281961092
 C    4.204423813042   -0.834632954893   -1.463281961092
 C    5.024423813042   -0.669632954893    1.300718038908
 C    3.660423813042   -0.204632954893    0.867718038908
 O    2.913423813042    0.312367045107    1.700718038908
 N    3.317423813042   -0.393632954893   -0.388281961092
 H    1.707423813042    0.949367045107   -0.747281961092
 H    1.251423813042   -0.714632954893   -0.259281961092
 H    1.900423813042    0.349367045107   -2.918281961092
 H    1.051423813042   -1.166632954893   -2.499281961092
 H    4.820423813042   -1.664632954893   -1.178281961092
 H    5.701423813042   -0.411632954893    0.486718038908
 H    2.856732813042   -1.087703954893   -2.457141961092
 H    3.488692813042   -1.168640954893   -2.228901961092
 H    4.817253813042   -0.008180954893   -1.852411961092
 H    5.343953813042   -0.055219954893    2.155348038908
 H    5.044053813042   -1.762325954893    1.425768038908
