21
0 1 
 C   -0.535485282753   -0.985542624320   -3.205378905909
 C    0.508514717247   -1.350542624320    0.248621094091
 C   -0.296485282753   -1.437542624320   -1.796378905909
 C   -0.727485282753   -2.541542624320   -1.130378905909
 N    0.474514717247   -0.711542624320   -0.913378905909
 N   -0.219485282753   -2.458542624320    0.147621094091
 H    0.985514717247   -0.983542624320    1.149621094091
 H   -0.627485282753   -2.929542624320    0.955621094091
 H   -1.419485282753   -3.288542624320   -1.503378905909
 H    0.432514717247   -0.781542624320   -3.662378905909
 H   -1.087485282753   -0.049542624320   -3.157378905909
 H   -1.104786282753   -1.684392624320   -3.835858905909
 C   -0.655485282753    3.342457375680    1.263621094091
 C    0.272514717247    2.168457375680    1.522621094091
 O    1.360514717247    2.076457375680    0.954621094091
 N   -0.144485282753    1.264457375680    2.393621094091
 H   -1.051485282753    3.683457375680    2.220621094091
 H   -1.500485282753    3.027457375680    0.659621094091
 H    0.502514717247    0.545457375680    2.660621094091
 H   -1.038485282753    1.374457375680    2.849621094091
 H   -0.145800282753    4.184987375680    0.773341094091
