21
1 1 
 C    1.643670028972    1.074199213304   -1.865340630351
 C    0.878670028972    2.050199213304   -2.744340630351
 H    2.587670028972    1.509199213304   -1.539340630351
 H    1.057670028972    0.857199213304   -0.974340630351
 H    1.833670028972    0.146199213304   -2.406340630351
 H    0.738670028972    2.978199213304   -2.189340630351
 H    1.437450028972    2.252999213304   -3.669887630351
 H   -0.115669971028    1.645685213304   -2.984453630351
 C   -2.103329971028    0.531199213304    1.041659369649
 C   -0.116329971028   -0.916800786696    0.915659369649
 N   -0.749329971028    0.130199213304    1.418659369649
 N    1.104670028972   -1.197800786696    1.321659369649
 N   -0.700329971028   -1.671800786696    0.003659369649
 H   -0.256329971028    0.672199213304    2.114659369649
 H    1.622670028972   -0.510800786696    1.870659369649
 H    1.533670028972   -2.062800786696    1.048659369649
 H   -1.647329971028   -1.477800786696   -0.271340630351
 H   -0.221329971028   -2.464800786696   -0.392340630351
 H   -2.824329971028   -0.052800786696    1.619659369649
 H   -2.290329971028    0.360199213304   -0.020340630351
 H   -2.266699971028    1.598955213304    1.249521369649
