16
0 1 
 C   -2.354388773869    0.300916067705   -0.248686138589
 C   -1.762388773869   -1.003083932295   -0.774686138589
 H   -2.459388773869    0.263916067705    0.836313861411
 H   -1.682388773869    1.115916067705   -0.506686138589
 H   -3.309388773869    0.489916067705   -0.722686138589
 H   -0.694388773869   -0.997083932295   -0.614686138589
 H   -1.928388773869   -1.068083932295   -1.848686138589
 H   -2.166152773869   -1.896412932295   -0.275749138589
 C    1.464611226131    0.282916067705    0.023313861411
 C    2.641611226131    0.420916067705    1.011313861411
 H    1.628611226131    0.919916067705   -0.841686138589
 H    1.421611226131   -0.742083932295   -0.338686138589
 H    0.525611226131    0.541916067705    0.510313861411
 H    2.482611226131   -0.226083932295    1.872313861411
 H    2.764935226131    1.464586067705    1.336183861411
 H    3.542394226131    0.113766067705    0.459723861411
