27
0 1 
 C    1.951978739438    3.055923678144   -1.106564400122
 C    0.729978739438   -0.481076321856    1.020435599878
 C    1.177978739438   -0.588076321856   -0.296564400122
 C    0.697978739438    0.761923678144    1.654435599878
 C    1.587978739438    0.553923678144   -0.981564400122
 C    1.112978739438    1.899923678144    0.962435599878
 C    1.558978739438    1.806923678144   -0.360564400122
 O    0.309978739438   -1.592076321856    1.686435599878
 H    1.178978739438   -1.544076321856   -0.805564400122
 H    0.318978739438   -2.377076321856    1.134435599878
 H    0.349978739438    0.836923678144    2.674435599878
 H    1.896978739438    0.465923678144   -2.014564400122
 H    1.073978739438    2.861923678144    1.457435599878
 H    2.185978739438    3.816923678144   -0.360564400122
 H    1.075978739438    3.402923678144   -1.656564400122
 H    2.800578739438    2.994953678144   -1.803814400122
 C   -2.807021260562   -1.399076321856   -0.213564400122
 C   -2.383021260562   -0.537076321856   -1.381564400122
 C   -3.109021260562   -2.758076321856   -0.830564400122
 H   -3.672021260562   -0.978076321856    0.301435599878
 H   -1.979021260562   -1.498076321856    0.483435599878
 H   -3.270021260562   -0.093076321856   -1.836564400122
 H   -1.696021260562    0.248923678144   -1.068564400122
 H   -2.751021260562   -3.531076321856   -0.149564400122
 H   -1.911981260562   -1.218196321856   -2.105574400122
 H   -2.512731260562   -2.778376321856   -1.754704400122
 H   -4.185311260562   -2.910186321856   -0.999254400122
