33
0 1 
 C   -1.282761801564    1.444618892815    2.843448620753
 C   -1.515761801564    2.107618892815    4.222448620753
 C   -2.588761801564    0.929618892815    2.247448620753
 C   -0.608761801564    2.425618892815    1.864448620753
 H   -0.613761801564    0.596618892815    2.972448620753
 H   -2.186761801564    2.956618892815    4.081448620753
 H   -3.300761801564    1.751618892815    2.164448620753
 H   -2.394761801564    0.532618892815    1.251448620753
 H   -3.009761801564    0.133618892815    2.860448620753
 H    0.361238198436    2.743618892815    2.243448620753
 H   -0.436761801564    1.925618892815    0.916448620753
 H   -1.245761801564    3.294618892815    1.703448620753
 H   -0.560274801564    2.439668892815    4.654638620753
 H   -1.994227301564    1.400758892815    4.916295620753
 C    2.492238198436    1.444618892815   -0.461551379247
 C    1.237238198436   -0.408381107185    0.815448620753
 C    1.568238198436    0.271618892815   -0.330551379247
 C    0.181238198436   -1.492381107185   -0.838551379247
 C    0.898238198436   -0.406381107185   -1.408551379247
 C   -0.571761801564   -2.365381107185   -1.605551379247
 C    0.835238198436   -0.214381107185   -2.800551379247
 C   -0.628761801564   -2.151381107185   -2.970551379247
 C    0.073238198436   -1.094381107185   -3.568551379247
 N    0.398238198436   -1.455381107185    0.512448620753
 H    1.569238198436   -0.150381107185    1.812448620753
 H   -0.002761801564   -2.114381107185    1.185448620753
 H    2.069238198436    2.301618892815    0.065448620753
 H    2.568238198436    1.704618892815   -1.516551379247
 H   -1.075761801564   -3.205381107185   -1.153551379247
 H    1.354238198436    0.611618892815   -3.256551379247
 H   -1.208761801564   -2.821381107185   -3.593551379247
 H    0.013238198436   -0.955381107185   -4.640551379247
 H    3.500572198436    1.228448892815   -0.078757379247
