34
0 1 
 C    2.039017268483   -2.748704446335    4.302336441156
 C   -0.552982731517   -2.084704446335    1.591336441156
 C    0.291017268483   -1.888704446335    2.687336441156
 C   -0.608982731517   -3.298704446335    0.944336441156
 C    1.065017268483   -2.953704446335    3.165336441156
 C    0.093017268483   -4.379704446335    1.444336441156
 C    0.963017268483   -4.187704446335    2.548336441156
 H   -1.124982731517   -1.251704446335    1.210336441156
 H    0.337017268483   -0.930704446335    3.168336441156
 H   -1.242982731517   -3.418704446335    0.076336441156
 H    0.032017268483   -5.329704446335    0.944336441156
 H    2.381017268483   -1.712704446335    4.274336441156
 H    2.910017268483   -3.385704446335    4.153336441156
 H    1.558017268483   -5.016704446335    2.904336441156
 H    1.621787268483   -2.954384446335    5.299136441156
 C    2.510017268483    2.780295553665   -1.031663558844
 C    0.038017268483    1.968295553665   -1.515663558844
 C    1.058017268483    2.993295553665   -1.459663558844
 C   -1.142982731517    2.583295553665   -2.019663558844
 C    0.464017268483    4.143295553665   -1.913663558844
 C   -1.200982731517   -0.105704446335   -1.412663558844
 C   -2.346982731517    0.563295553665   -1.904663558844
 C    0.018017268483    0.571295553665   -1.245663558844
 C   -2.332982731517    1.897295553665   -2.207663558844
 N   -0.855982731517    3.900295553665   -2.261663558844
 H   -1.256982731517   -1.163704446335   -1.199663558844
 H   -3.255982731517   -0.002704446335   -2.059663558844
 H    0.900017268483    0.060295553665   -0.886663558844
 H   -3.199982731517    2.393295553665   -2.612663558844
 H    2.545017268483    2.049295553665   -0.224663558844
 H    2.875017268483    3.721295553665   -0.635663558844
 H    0.963017268483    5.103295553665   -2.001663558844
 H   -1.495982731517    4.603295553665   -2.610663558844
 H    3.140877268483    2.424725553665   -1.859664558844
