23
0 1 
 C    1.330640856115   -1.906213226437    2.653969113154
 C    0.169640856115   -1.000213226437    2.302969113154
 O   -0.976359143885   -1.484213226437    2.310969113154
 O    0.420640856115    0.188786773563    2.004969113154
 H    1.952640856115   -1.443213226437    3.422969113154
 H    1.941640856115   -2.015213226437    1.756969113154
 H    0.991790856115   -2.899023226437    2.984909113154
 C    0.717640856115   -0.469213226437   -1.273030886846
 C    1.138640856115   -1.618213226437   -2.187030886846
 C   -0.682359143885    1.556786773563   -1.466030886846
 N    0.114640856115    0.647786773563   -2.011030886846
 N   -0.984359143885    1.510786773563   -0.181030886846
 N   -1.177359143885    2.526786773563   -2.209030886846
 H   -0.010359143885   -0.860213226437   -0.559030886846
 H    1.591640856115   -0.115213226437   -0.723030886846
 H    2.025640856115   -1.320213226437   -2.745030886846
 H    0.332640856115   -1.836213226437   -2.889030886846
 H    0.339640856115    0.740786773563   -2.993030886846
 H   -0.541359143885    0.838786773563    0.448969113154
 H   -1.564359143885    2.236786773563    0.217969113154
 H   -1.026359143885    2.516786773563   -3.210030886846
 H   -1.954359143885    3.055786773563   -1.842030886846
 H    1.342330856115   -2.515753226437   -1.584590886846
