26
0 1 
 C    2.744386214314    0.741114496679    1.143822153931
 C    3.373386214314    0.987114496679    2.498822153931
 C    2.615386214314    0.305114496679   -0.124177846069
 O    2.868386214314   -1.112885503321   -0.161177846069
 O    2.356386214314    0.839114496679   -1.217177846069
 H    2.895976214314    0.370184496679    3.268272153931
 H    3.296616214314    2.033064496679    2.816462153931
 H    4.432396214314    0.712024496679    2.471902153931
 H    1.703896214314    0.584544496679    1.469212153931
 H    2.745586214314    1.808534496679    0.844272153931
 C   -0.842613785686    0.132324496679    0.257392153931
 C   -1.251173785686    0.049134496679    1.713972153931
 C   -2.900933785686   -0.475055503321   -1.008877846069
 N   -1.658313785686   -0.725585503321   -0.607337846069
 N   -3.561023785686    0.626494496679   -0.637167846069
 N   -3.524683785686   -1.350595503321   -1.803807846069
 H   -0.871323785686    1.159104496679   -0.121187846069
 H    0.174506214314   -0.230845503321    0.146672153931
 H   -2.305323785686    0.301804496679    1.855602153931
 H   -0.648883785686    0.733554496679    2.319342153931
 H   -1.150703785686   -1.489545503321   -1.041237846069
 H   -3.096583785686    1.326634496679   -0.071617846069
 H   -4.499583785686    0.821384496679   -0.945997846069
 H   -3.053663785686   -2.197495503321   -2.099267846069
 H   -4.465013785686   -1.194365503321   -2.131287846069
 H   -1.099263785686   -0.966055503321    2.094762153931
