16
0 1 
 C   -1.539639069062    0.463394953221   -1.396342026863
 C   -2.685639069062    0.554394953221   -0.395342026863
 H   -0.676639069062    1.015394953221   -1.030342026863
 H   -1.265639069062   -0.580605046779   -1.547342026863
 H   -1.845639069062    0.878394953221   -2.354342026863
 H   -3.565639069062    0.073394953221   -0.820342026863
 H   -2.890013069062    1.608534953221   -0.156552026863
 H   -2.438985069062    0.003394953221    0.524197973137
 C    1.384360930938   -0.316605046779    0.975657973137
 C    2.844360930938   -0.699605046779    0.819657973137
 H    1.228360930938    0.335394953221    1.831657973137
 H    1.067360930938    0.213394953221    0.080657973137
 H    0.770360930938   -1.209605046779    1.098657973137
 H    3.426360930938    0.193394953221    0.587657973137
 H    3.205300930938   -1.142735046779    1.759527973137
 H    2.943805930938   -1.407165046779   -0.016682026863
