16
0 1 
 C   -0.789041751234   -1.824520231376   -0.118546136574
 C    0.228958248766   -2.098520231376   -1.214546136574
 H   -1.428041751234   -2.686520231376    0.053453863426
 H   -0.261041751234   -1.606520231376    0.807453863426
 H   -1.404041751234   -0.966520231376   -0.389546136574
 H    0.885958248766   -2.912520231376   -0.903546136574
 H    0.835958248766   -1.200520231376   -1.316546136574
 H   -0.250771751234   -2.360980231376   -2.168995136574
 C    0.769958248766    1.484479768624    0.333453863426
 C   -0.213041751234    2.436479768624    0.999453863426
 H    0.588958248766    0.462479768624    0.645453863426
 H    0.658958248766    1.545479768624   -0.749546136574
 H    1.790958248766    1.755479768624    0.601453863426
 H   -1.212041751234    2.233479768624    0.611453863426
 H   -0.216631751234    2.293689768624    2.090140863426
 H    0.049488248766    3.467749768624    0.720966863426
