27
0 1 
 C    0.776424703462    4.105345032321    1.319276676919
 C    1.731424703462    2.965345032321    1.708276676919
 H    1.242424703462    5.071345032321    1.500276676919
 H    0.537424703462    4.033345032321    0.258276676919
 H   -0.151575296538    4.038345032321    1.885276676919
 H    1.239424703462    2.026345032321    1.466276676919
 H    1.953291203462    2.953965032321    2.785609676919
 H    2.658523303462    2.993505032321    1.116926676919
 C   -0.184575296538    1.458345032321   -1.321723323081
 C   -0.538575296538    1.563345032321   -2.806723323081
 C   -0.244575296538    0.087345032321   -0.680723323081
 C   -0.499575296538   -0.032654967679    0.689276676919
 C   -0.049575296538   -1.077654967679   -1.433723323081
 C   -0.507575296538   -1.272654967679    1.307276676919
 C   -0.094575296538   -2.326654967679   -0.816723323081
 C   -0.309575296538   -2.419654967679    0.552276676919
 O   -0.325575296538   -3.645654967679    1.148276676919
 H    0.835424703462    1.823345032321   -1.201723323081
 H   -0.824575296538    2.134345032321   -0.765723323081
 H    0.213424703462    1.025345032321   -3.378723323081
 H   -0.676575296538    0.853345032321    1.283276676919
 H    0.153424703462   -1.031654967679   -2.492723323081
 H   -0.681575296538   -1.346654967679    2.372276676919
 H    0.022424703462   -3.221654967679   -1.394723323081
 H   -0.210575296538   -3.567654967679    2.109276676919
 H   -0.558232296538    2.623325032321   -3.100073323081
 H   -1.529143296538    1.129065032321   -3.007163323081
