27
0 1 
 C   -1.435776681497   -2.242673196494    3.613863075722
 C   -0.999776681497   -0.121673196494    0.531863075722
 C   -1.645776681497    1.051326803506    0.887863075722
 C   -0.946776681497   -1.177673196494    1.425863075722
 C   -1.503776681497   -1.065673196494    2.691863075722
 C   -2.213776681497    1.170326803506    2.146863075722
 C   -2.153776681497    0.112326803506    3.044863075722
 H   -0.550776681497   -0.217673196494   -0.447136924278
 H   -1.696776681497    1.874326803506    0.187863075722
 H   -0.459776681497   -2.092673196494    1.121863075722
 H   -2.701776681497    2.093326803506    2.414863075722
 H   -0.642776681497   -2.904673196494    3.261863075722
 H   -2.376776681497   -2.789673196494    3.527863075722
 H   -2.562776681497    0.210326803506    4.031863075722
 H   -1.252518681497   -2.016296196494    4.674603075722
 C    3.140223318503   -1.216673196494   -1.742136924278
 C    1.056223318503    1.746326803506   -2.068136924278
 C    2.171223318503   -0.146673196494   -2.170136924278
 C    1.427223318503   -0.031673196494   -3.307136924278
 N    1.915223318503    0.977326803506   -1.411136924278
 N    0.744223318503    1.162326803506   -3.220136924278
 H    0.668223318503    2.697326803506   -1.724136924278
 H    0.093223318503    1.540326803506   -3.900136924278
 H    1.400223318503   -0.743673196494   -4.119136924278
 H    2.748223318503   -2.180673196494   -2.064136924278
 H    3.199223318503   -1.229673196494   -0.653136924278
 H    4.148823318503   -1.079973196494   -2.159317924278
