23
0 1 
 C   -1.165642920580    0.111438731959   -2.732101515596
 C   -0.334642920580   -0.073561268041   -0.363101515596
 C   -0.430642920580    0.673438731959   -1.537101515596
 C    0.383357079420    0.415438731959    0.719898484404
 C    0.228357079420    1.903438731959   -1.619101515596
 C    1.028357079420    1.643438731959    0.631898484404
 C    0.949357079420    2.393438731959   -0.536101515596
 H   -0.827642920580   -1.033561268041   -0.291101515596
 H    0.454357079420   -0.162561268041    1.630898484404
 H   -1.148642920580   -0.977561268041   -2.671101515596
 H   -0.617642920580    0.384438731959   -3.630101515596
 H    0.186357079420    2.478438731959   -2.535101515596
 H    1.613357079420    2.003438731959    1.466898484404
 H    1.467357079420    3.340438731959   -0.610101515596
 H   -2.208812920580    0.444078731959   -2.837711515596
 C   -0.281642920580   -3.254561268041    1.751898484404
 C   -0.173642920580   -2.825561268041    3.228898484404
 H   -1.317642920580   -3.267561268041    1.419898484404
 H    0.279357079420   -2.561561268041    1.125898484404
 H    0.141357079420   -4.251561268041    1.623898484404
 H   -0.600642920580   -1.829561268041    3.336898484404
 H   -0.726692920580   -3.531721268041    3.865658484404
 H    0.885947079420   -2.786611268041    3.521748484404
