19
0 1 
 C    0.076932963304   -1.668552861751   -0.409202116371
 C    0.564932963304   -2.588552861751    0.707797883629
 C    1.207932963304   -0.910552861751   -1.082202116371
 H   -0.478067036696   -2.246552861751   -1.146202116371
 H   -0.610067036696   -0.941552861751    0.016797883629
 H    1.062932963304   -1.978552861751    1.464797883629
 H    1.299932963304   -3.283552861751    0.296797883629
 H    0.786932963304   -0.005552861751   -1.524202116371
 H    1.945932963304   -0.595552861751   -0.343202116371
 H   -0.236051036696   -3.168152861751    1.189967883629
 H    1.633080963304   -1.498232861751   -1.909172116371
 C   -0.834067036696    1.995447138249   -0.161202116371
 C   -1.013067036696    3.051447138249    0.917797883629
 H   -1.799067036696    1.578447138249   -0.455202116371
 H   -0.350067036696    2.435447138249   -1.034202116371
 H   -0.194067036696    1.211447138249    0.236797883629
 H   -0.023067036696    3.391447138249    1.226797883629
 H   -1.523061036696    2.615277138249    1.789387883629
 H   -1.547028036696    3.923557138249    0.512447883629
