24
0 1 
 C   -1.888724565208   -1.289572630170   -2.691476895959
 C   -2.882724565208   -1.100572630170   -3.856476895959
 H   -0.935724565208   -0.819572630170   -2.937476895959
 H   -2.285724565208   -0.833572630170   -1.784476895959
 H   -1.723724565208   -2.354572630170   -2.511476895959
 H   -3.831724565208   -1.570572630170   -3.598476895959
 H   -2.490144565208   -1.568952630170   -4.771076895959
 H   -3.027634565208   -0.024542630170   -4.032986895959
 C   -1.359724565208    0.066427369830    3.069523104041
 C    0.236275434792    0.633427369830   -0.382476895959
 C   -0.723724565208    0.466427369830    0.643523104041
 C    1.620275434792    0.474427369830   -0.096476895959
 C   -0.329724565208    0.127427369830    1.941523104041
 C    2.009275434792    0.105427369830    1.197523104041
 C    1.044275434792   -0.064572630170    2.197523104041
 O    2.612275434792    0.746427369830   -1.022476895959
 H   -0.083724565208    0.835427369830   -1.398476895959
 H   -1.778724565208    0.597427369830    0.435523104041
 H    2.267275434792    1.060427369830   -1.875476895959
 H    3.057275434792   -0.042572630170    1.416523104041
 H   -1.020724565208   -0.636572630170    3.819523104041
 H   -2.317724565208   -0.274572630170    2.675523104041
 H    1.354275434792   -0.347572630170    3.193523104041
 H   -1.559624565208    1.053147369830    3.512723104041
