14
0 1 
 C   -0.012896945483   -0.678594747537   -2.238712089889
 O    0.761103054517   -1.005594747537   -1.089712089889
 H    1.287103054517   -1.794594747537   -1.307712089889
 H    0.613103054517   -0.785594747537   -3.125712089889
 H   -0.878796945483   -1.353584747537   -2.306642089889
 H   -0.339096945483    0.369145252463   -2.162382089889
 C    0.308103054517    0.886405252463    1.566287910111
 C   -1.155896945483    0.966405252463    1.979287910111
 H    0.953103054517    1.111405252463    2.416287910111
 H    0.536103054517   -0.120594747537    1.227287910111
 H    0.508103054517    1.592405252463    0.761287910111
 H   -1.785896945483    0.858405252463    1.096287910111
 H   -1.336586945483    1.944705252463    2.448637910111
 H   -1.388296945483    0.156635252463    2.686577910111
