16
0 1 
 C    1.598656932409    0.904501861095   -1.111286544123
 C    1.766656932409   -0.536498138905   -1.571286544123
 H    0.544656932409    1.176501861095   -1.122286544123
 H    1.984656932409    1.015501861095   -0.098286544123
 H    2.144656932409    1.574501861095   -1.779286544123
 H    1.250656932409   -1.189498138905   -0.871286544123
 H    1.315506932409   -0.676678138905   -2.564666544123
 H    2.832711932409   -0.806418138905   -1.545442544123
 C   -1.544343067591   -0.276498138905    0.592713455877
 C   -1.829343067591   -0.097498138905    2.083713455877
 H   -1.776343067591    0.638501861095    0.050713455877
 H   -0.487343067591   -0.500498138905    0.467713455877
 H   -2.123343067591   -1.100498138905    0.181713455877
 H   -1.177343067591    0.706501861095    2.424713455877
 H   -2.860023067591    0.232231861095    2.281123455877
 H   -1.548764067591   -0.998798138905    2.648459455877
