19
0 1 
 C    1.500361606801   -0.990529783331   -0.767198570847
 C    0.414361606801   -1.294529783331   -1.825198570847
 C    1.220361606801   -1.572529783331    0.616801429153
 H    2.469361606801   -1.312529783331   -1.121198570847
 H    1.554361606801    0.092470216669   -0.647198570847
 H   -0.516638393199   -0.820529783331   -1.514198570847
 H    1.816361606801   -1.041529783331    1.359801429153
 H    0.157361606801   -1.462529783331    0.825801429153
 H    1.483361606801   -2.629529783331    0.639801429153
 H    0.705990606801   -0.896209783331   -2.808198570847
 H    0.238435606801   -2.378087783331   -1.895568570847
 C   -0.939638393199    1.681470216669    0.519801429153
 C   -2.097638393199    2.102470216669    1.403801429153
 H   -0.087638393199    1.422470216669    1.149801429153
 H   -1.221638393199    0.805470216669   -0.061198570847
 H   -0.639638393199    2.486470216669   -0.152198570847
 H   -2.283638393199    1.322470216669    2.143801429153
 H   -3.000408393199    2.243210216669    0.791261429153
 H   -1.840217393199    3.045310216669    1.908561429153
