20
0 1 
 C   -1.993661124123    1.747826417212    0.575864961917
 C   -3.070661124123    2.610826417212    1.227864961917
 H   -2.424661124123    0.831826417212    0.183864961917
 H   -1.562661124123    2.290826417212   -0.265135038083
 H   -1.195661124123    1.510826417212    1.278864961917
 H   -3.869661124123    2.779826417212    0.506864961917
 H   -3.496421124123    2.101631417212    2.105044961917
 H   -2.660531124123    3.590093417212    1.515674961917
 C    0.053338875877   -1.147173582788   -0.770135038083
 C   -0.414661124123   -1.986173582788    0.419864961917
 C    1.439338875877   -0.563173582788   -0.597135038083
 O    1.797338875877    0.401826417212   -1.270135038083
 N    2.244338875877   -1.147173582788    0.278864961917
 H    0.081338875877   -1.781173582788   -1.657135038083
 H   -0.649661124123   -0.335173582788   -0.949135038083
 H   -0.663661124123   -1.333173582788    1.258864961917
 H    0.372338875877   -2.674173582788    0.724864961917
 H    3.159338875877   -0.744173582788    0.426864961917
 H    1.946338875877   -1.950173582788    0.805864961917
 H   -1.280881124123   -2.608927582788    0.151834961917
