16
0 1 
 C    0.472951420162    1.429740105206   -0.656031377769
 C    1.234951420162    2.742740105206   -0.759031377769
 H   -0.415048579838    1.462740105206   -1.288031377769
 H    1.109951420162    0.609740105206   -0.992031377769
 H    0.171951420162    1.224740105206    0.370968622231
 H    2.074951420162    2.703740105206   -0.064031377769
 H    0.590299420162    3.590510105206   -0.483881377769
 H    1.640191420162    2.865320105206   -1.774291377769
 C   -1.466048579838   -1.629259894794    0.686968622231
 C   -0.246048579838   -2.543259894794    0.733968622231
 H   -1.575048579838   -1.079259894794    1.620968622231
 H   -1.337048579838   -0.903259894794   -0.114031377769
 H   -2.367048579838   -2.212259894794    0.491968622231
 H    0.632951420162   -1.956259894794    0.996968622231
 H   -0.105048579838   -2.928259894794   -0.275031377769
 H   -0.371112579838   -3.377019894794    1.440508622231
