20
0 1 
 C   -2.922083329489   -0.993497456218    2.229807492633
 C   -1.799083329489   -0.464497456218    1.349807492633
 O   -1.881083329489    0.694502543782    0.876807492633
 O   -0.831083329489   -1.222497456218    1.112807492633
 H   -2.507083329489   -1.695497456218    2.956807492633
 H   -3.637083329489   -1.543497456218    1.614807492633
 H   -3.448603329489   -0.198307456218    2.777939492633
 C    1.608916670511   -1.572497456218   -1.459192507367
 C    1.448916670511    0.876502543782   -1.019192507367
 N    0.759916670511    1.874502543782   -0.501192507367
 N    0.966916670511   -0.358497456218   -0.935192507367
 N    2.600916670511    1.125502543782   -1.617192507367
 H   -0.126083329489    1.655502543782   -0.048192507367
 H    1.076916670511    2.826502543782   -0.571192507367
 H    0.151916670511   -0.494497456218   -0.333192507367
 H    3.063916670511    0.386502543782   -2.119192507367
 H    2.917916670511    2.075502543782   -1.725192507367
 H    2.217916670511   -1.356497456218   -2.340192507367
 H    0.798916670511   -2.230497456218   -1.770192507367
 H    2.209156670511   -2.100397456218   -0.703521507367
