27
0 1 
 C    2.956940624963    1.013146292077   -2.497590461589
 C    3.180940624963    2.158146292077   -3.480590461589
 H    3.158940624963    0.049146292077   -2.964590461589
 H    3.601940624963    1.165146292077   -1.635590461589
 H    1.936940624963    1.050146292077   -2.140590461589
 H    2.868940624963    3.088146292077   -3.006590461589
 H    2.597047624963    1.992144292077   -4.397930461589
 H    4.246867624963    2.250111292077   -3.736210461589
 C    1.207940624963   -2.442853707923   -0.188590461589
 C   -0.426059375037   -0.480853707923    0.338409538411
 C    0.244940624963   -1.705853707923    0.669409538411
 C   -1.268059375037   -0.151853707923    1.432409538411
 C   -0.211059375037   -2.073853707923    1.894409538411
 C   -0.395059375037    0.374146292077   -0.769590461589
 C   -1.185059375037    1.519146292077   -0.759590461589
 C   -2.008059375037    1.819146292077    0.338409538411
 C   -2.056059375037    0.990146292077    1.447409538411
 N   -1.115059375037   -1.145853707923    2.360409538411
 H    0.181940624963    0.102146292077   -1.636590461589
 H   -1.179059375037    2.184146292077   -1.614590461589
 H   -2.616059375037    2.715146292077    0.316409538411
 H    1.835940624963   -3.086853707923    0.430409538411
 H    1.852940624963   -1.716853707923   -0.684590461589
 H    0.094940624963   -2.969853707923    2.427409538411
 H   -1.579059375037   -1.204853707923    3.261409538411
 H   -2.690059375037    1.219146292077    2.293409538411
 H    0.688512624963   -3.044523707923   -0.948980461589
