16
0 1 
 C    0.605989585778   -0.008198656783    1.555038246129
 C    0.789989585778   -0.045198656783    3.070038246129
 H   -0.445010414222    0.004801343217    1.282038246129
 H    1.077989585778    0.886801343217    1.152038246129
 H    1.060989585778   -0.889198656783    1.102038246129
 H    0.271989585778    0.812801343217    3.491038246129
 H    0.347829585778   -0.973879656783    3.459968246129
 H    1.852429585778    0.052894343217    3.337628246129
 C   -0.120010414222    0.460801343217   -2.060961753871
 C   -1.270010414222   -0.416198656783   -2.560961753871
 H    0.428989585778    0.877801343217   -2.899961753871
 H   -0.535010414222    1.287801343217   -1.483961753871
 H    0.556989585778   -0.106198656783   -1.420961753871
 H   -1.931010414222    0.199801343217   -3.168961753871
 H   -0.893150414222   -1.250474656783   -3.170845753871
 H   -1.863970414222   -0.798234656783   -1.717598753871
