23
0 1 
 C    0.186110977723   -2.524547763364    2.982892711556
 C    0.865110977723   -2.916547763364    4.297892711556
 H    0.664110977723   -3.017547763364    2.142892711556
 H   -0.871889022277   -2.781547763364    2.996892711556
 H    0.270110977723   -1.444547763364    2.863892711556
 H    0.249110977723   -2.578547763364    5.131892711556
 H    1.858400977723   -2.446605763364    4.348243711556
 H    1.015430977723   -4.004745763364    4.354711711556
 C    0.225110977723    2.494452236636   -3.007107288444
 C   -0.472889022277   -0.360547763364    0.167892711556
 C    0.825110977723    0.058452236636   -0.137107288444
 C   -1.559889022277    0.175452236636   -0.537107288444
 C    1.064110977723    0.996452236636   -1.141107288444
 C   -1.316889022277    1.119452236636   -1.559107288444
 C   -0.017889022277    1.531452236636   -1.869107288444
 H   -0.653889022277   -1.104547763364    0.922892711556
 H    1.659110977723   -0.353547763364    0.416892711556
 H   -2.568889022277   -0.145547763364   -0.316107288444
 H    2.078110977723    1.298452236636   -1.364107288444
 H   -2.154889022277    1.510452236636   -2.120107288444
 H    0.998110977723    3.175452236636   -2.706107288444
 H   -0.681889022277    3.071452236636   -3.194107288444
 H    0.544140977723    1.986022236636   -3.928908288444
