20
0 1 
 C   -2.754770278584   -1.766106557172   -1.532989940639
 C   -1.887770278584   -0.616106557172   -1.074989940639
 O   -1.760770278584   -0.474106557172    0.154010059361
 O   -1.321770278584    0.119893442828   -1.917989940639
 H   -3.097770278584   -1.588106557172   -2.548989940639
 H   -3.634770278584   -1.819106557172   -0.887989940639
 H   -2.217877278584   -2.725046557172   -1.486329940639
 C    1.079229721416   -0.598106557172    2.448010059361
 C    1.649229721416    0.821893442828    0.483010059361
 N    0.888229721416   -0.076106557172    1.086010059361
 N    1.334229721416    1.220893442828   -0.732989940639
 N    2.723229721416    1.310893442828    1.069010059361
 H    0.013229721416   -0.320106557172    0.623010059361
 H    0.478229721416    0.000893442828    3.135010059361
 H    2.122229721416   -0.540106557172    2.767010059361
 H    0.471229721416    0.875893442828   -1.150989940639
 H    1.857229721416    1.956893442828   -1.175989940639
 H    2.956229721416    1.017893442828    2.003010059361
 H    3.304229721416    1.985893442828    0.598010059361
 H    0.743463721416   -1.643446557172    2.515310059361
