19
0 1 
 C    1.759130661153    0.431396062538   -0.957971213995
 C    3.137130661153    0.774396062538   -1.501971213995
 H    0.987130661153    0.767396062538   -1.651971213995
 H    1.684130661153   -0.646603937462   -0.829971213995
 H    1.606130661153    0.895396062538    0.016028786005
 H    3.886130661153    0.522396062538   -0.756971213995
 H    3.227424561153    1.843586062538   -1.744188213995
 H    3.342910661153    0.184136062538   -2.407092513995
 C   -1.628869338847   -0.642603937462    0.328028786005
 C   -2.505869338847    0.580396062538    0.628028786005
 C   -0.877869338847   -1.187603937462    1.530028786005
 H   -2.252869338847   -1.431603937462   -0.096971213995
 H   -0.895869338847   -0.347603937462   -0.421971213995
 H   -1.908869338847    1.304396062538    1.162028786005
 H   -0.350869338847   -0.356603937462    2.002028786005
 H   -1.593869338847   -1.590603937462    2.249028786005
 H   -3.383875338847    0.324026062538    1.239077786005
 H   -2.816076338847    1.019616062538   -0.331585213995
 H   -0.146239338847   -1.963793937462    1.261237786005
