17
-2 1 
 C    1.981038462959   -0.271082631750   -1.862241975153
 C    0.504038462959    0.082917368250   -1.921241975153
 O    0.158038462959    1.279917368250   -1.980241975153
 O   -0.354961537041   -0.827082631750   -1.910241975153
 H    2.204038462959   -1.011082631750   -2.633241975153
 H    2.201038462959   -0.712082631750   -0.889241975153
 H    2.642568462959    0.596217368250   -2.004251975153
 C   -0.549961537041    1.028917368250    1.604758024847
 C    0.922038462959    1.349917368250    1.690758024847
 C   -0.813961537041   -0.464082631750    1.500758024847
 O    0.026038462959   -1.293082631750    1.917758024847
 O   -1.923961537041   -0.837082631750    1.032758024847
 H   -1.046961537041    1.420917368250    2.495758024847
 H   -0.982961537041    1.514917368250    0.727758024847
 H    1.427038462959    0.899917368250    0.834758024847
 H    1.329038462959    0.926917368250    2.602758024847
 H    1.144988462959    2.426557368250    1.724558024847
