35
0 1 
 C   -1.424456538270   -0.905473815354   -2.070360914739
 C   -1.398456538270   -0.107473815354   -3.386360914739
 C   -0.056456538270   -1.365473815354   -1.616360914739
 C    0.834543461730   -0.439473815354   -1.090360914739
 C    0.344543461730   -2.708473815354   -1.716360914739
 C    2.100543461730   -0.816473815354   -0.715360914739
 C    1.631543461730   -3.105473815354   -1.326360914739
 C    2.513543461730   -2.143473815354   -0.834360914739
 O    3.770543461730   -2.464473815354   -0.429360914739
 H   -1.867456538270   -0.293473815354   -1.286360914739
 H   -2.064456538270   -1.776473815354   -2.210360914739
 H   -0.735456538270    0.746526184646   -3.241360914739
 H    0.534543461730    0.595526184646   -0.990360914739
 H   -0.348456538270   -3.440473815354   -2.104360914739
 H    2.779543461730   -0.075473815354   -0.318360914739
 H    1.938543461730   -4.135473815354   -1.404360914739
 H    4.260543461730   -1.696473815354   -0.126360914739
 H   -2.397946538270    0.253786184646   -3.670101914739
 H   -0.981536538270   -0.719393815354   -4.199828914739
 C   -3.369456538270    0.078526184646    2.323639085261
 C   -2.121456538270    1.594526184646    0.759639085261
 C   -2.201456538270    0.946526184646    1.997639085261
 C   -1.028456538270    2.397526184646    0.438639085261
 C   -1.151456538270    1.085526184646    2.894639085261
 C   -0.008456538270    2.533526184646    1.345639085261
 C   -0.052456538270    1.892526184646    2.578639085261
 O    1.055543461730    3.309526184646    1.000639085261
 H   -2.910456538270    1.461526184646    0.031639085261
 H   -0.973456538270    2.897526184646   -0.517360914739
 H   -3.029456538270   -0.935473815354    2.523639085261
 H   -3.994456538270    0.025526184646    1.433639085261
 H   -1.161456538270    0.558526184646    3.835639085261
 H    0.763543461730    1.996526184646    3.278639085261
 H    1.717543461730    3.339526184646    1.700639085261
 H   -3.970986538270    0.444356184646    3.168819085261
