23
0 1 
 C    1.758242999160    2.869587916530   -0.982030876414
 C    0.760242999160   -0.615412083470   -0.868030876414
 C    1.096242999160    1.539587916530   -1.163030876414
 C    0.053242999160    1.165587916530   -1.951030876414
 N    1.514242999160    0.405587916530   -0.497030876414
 N   -0.138757000840   -0.184412083470   -1.747030876414
 H    0.884242999160   -1.639412083470   -0.534030876414
 H   -0.821757000840   -0.770412083470   -2.213030876414
 H   -0.515757000840    1.806587916530   -2.602030876414
 H    2.563242999160    2.957587916530   -1.701030876414
 H    2.217242999160    2.842587916530    0.002969123586
 H    1.086622999160    3.738237916530   -1.048185876414
 C   -1.366757000840   -1.470412083470    1.743969123586
 C   -1.746757000840   -2.917412083470    2.074969123586
 C   -1.552757000840   -0.486412083470    2.900969123586
 H   -0.320757000840   -1.441412083470    1.441969123586
 H   -1.976757000840   -1.125412083470    0.907969123586
 H   -2.746757000840   -2.916412083470    2.507969123586
 H   -0.884757000840   -0.736412083470    3.721969123586
 H   -1.273757000840    0.500587916530    2.535969123586
 H   -1.041218000840   -3.343912083470    2.803194123586
 H   -1.813127000840   -3.531290083470    1.164612123586
 H   -2.581617000840   -0.427464083470    3.285650723586
