16
0 1 
 C   -1.107678670755   -1.766622999727   -0.361390302420
 C   -0.104678670755   -2.842622999727    0.114609697580
 H   -2.014678670755   -2.245622999727   -0.734390302420
 H   -1.375678670755   -1.113622999727    0.471609697580
 H   -0.662678670755   -1.169622999727   -1.157390302420
 H   -0.615678670755   -3.401622999727    0.895609697580
 H    0.184821329245   -3.524512999727   -0.698540302420
 H    0.803751329245   -2.389132999727    0.537819697580
 C    0.445321329245    1.551377000273    0.116609697580
 C    0.768321329245    3.062377000273    0.124609697580
 H   -0.514678670755    1.385377000273   -0.372390302420
 H    1.222321329245    1.011377000273   -0.424390302420
 H    0.397321329245    1.171377000273    1.139609697580
 H    1.723321329245    3.210377000273    0.626609697580
 H   -0.025538670755    3.575177000273    0.687519697580
 H    0.862091329245    3.436777000273   -0.905460302420
