17
0 1 
 C    2.341070847790   -0.196065547365    0.500275085107
 C    2.378070847790   -0.231065547365    2.023275085107
 H    1.899070847790   -1.111065547365    0.105275085107
 H    1.742070847790    0.654934452635    0.177275085107
 H    3.350070847790   -0.081065547365    0.104275085107
 H    1.363070847790   -0.379065547365    2.389275085107
 H    2.739070847790    0.738934452635    2.362275085107
 H    3.020820847790   -1.044315547365    2.391375085107
 C   -1.022929152210    0.159934452635   -1.032724914893
 C   -2.264929152210    0.519934452635   -1.845724914893
 O   -1.378929152210   -0.197065547365    0.293275085107
 H   -0.519929152210   -0.683065547365   -1.510724914893
 H   -0.337929152210    1.007934452635   -1.007724914893
 H   -2.935929152210   -0.341065547365   -1.845724914893
 H   -0.694929152210   -0.778065547365    0.654275085107
 H   -2.000419152210    0.770954452635   -2.883524914893
 H   -2.782479152210    1.363218452635   -1.365084914893
