30
0 1 
 C   -0.429364967931    0.391826588789    4.269882374084
 C    1.878635032069    0.571826588789    1.244882374084
 C    1.021635032069    0.945826588789    2.285882374084
 C    2.146635032069   -0.764173411211    1.022882374084
 C    0.443635032069   -0.023173411211    3.111882374084
 C    1.588635032069   -1.730173411211    1.835882374084
 C    0.737635032069   -1.369173411211    2.873882374084
 H    2.324635032069    1.328826588789    0.615882374084
 H    0.823635032069    1.990826588789    2.461882374084
 H    2.809635032069   -1.047173411211    0.217882374084
 H    1.850635032069   -2.762173411211    1.681882374084
 H    0.071635032069    1.202826588789    4.798882374084
 H   -0.525364967931   -0.441173411211    4.965882374084
 H    0.320635032069   -2.134173411211    3.513882374084
 H   -1.430943967931    0.732850488789    3.968979374084
 C    0.001635032069   -1.903173411211   -2.016117625916
 C   -0.521364967931    0.461826588789   -1.343117625916
 C   -0.604364967931   -0.561173411211   -2.278117625916
 C   -1.102364967931    1.706826588789   -1.557117625916
 C   -1.356364967931   -0.343173411211   -3.410117625916
 C   -1.805364967931    1.924826588789   -2.721117625916
 C   -1.940364967931    0.889826588789   -3.623117625916
 H   -0.002364967931    0.285826588789   -0.417117625916
 H   -1.008364967931    2.487826588789   -0.816117625916
 H   -0.745364967931   -2.642173411211   -2.204117625916
 H    0.310635032069   -1.971173411211   -0.972117625916
 H   -1.516364967931   -1.134173411211   -4.126117625916
 H   -2.286364967931    2.874826588789   -2.906117625916
 H   -2.550364967931    1.010826588789   -4.499117625916
 H    0.852855032069   -2.146788411211   -2.668862625916
