19
0 1 
 C    0.544724932831    1.188221985777   -1.635980396511
 C    0.570724932831   -0.342778014223   -1.602980396511
 C    1.092724932831    1.858221985777   -0.335980396511
 H    1.128724932831    1.535221985777   -2.489980396511
 H   -0.475275067169    1.545221985777   -1.765980396511
 H    0.679724932831   -0.799778014223   -0.651980396511
 H    1.579724932831   -0.559778014223   -1.959980396511
 H    1.230724932831    2.925221985777   -0.518980396511
 H    0.332724932831    1.746221985777    0.438019603489
 H   -0.057005067169   -0.831173014223   -2.362865396511
 H    2.046684932831    1.418279985777   -0.009764396511
 C   -0.793275067169   -0.881778014223    1.191019603489
 C   -1.415275067169   -1.741778014223    2.282019603489
 H   -1.143275067169    0.153221985777    1.192019603489
 H    0.268724932831   -0.830778014223    1.432019603489
 H   -0.899275067169   -1.421778014223    0.260019603489
 H   -0.685275067169   -2.472778014223    2.635019603489
 H   -2.296905067169   -2.279477014223    1.903055603489
 H   -1.705555067169   -1.081705014223    3.112707603489
