24
0 1 
 C   -0.756668310590    0.651584265034   -2.706114973847
 C   -0.045668310590   -0.273415734966   -3.694114973847
 O   -0.303668310590    1.986584265034   -2.810114973847
 H   -1.828668310590    0.624584265034   -2.908114973847
 H   -0.599668310590    0.288584265034   -1.693114973847
 H   -0.405668310590   -1.285415734966   -3.502114973847
 H   -0.926668310590    2.572584265034   -2.333114973847
 H    1.041592689410   -0.252434734966   -3.528515973847
 H   -0.329102810590   -0.024423734966   -4.727394973847
 C   -0.527668310590    1.920584265034    1.341885026153
 C    0.786331689410   -0.070415734966    0.515885026153
 C   -0.094668310590    0.473584265034    1.445885026153
 C    1.184331689410   -1.396415734966    0.616885026153
 C   -0.532668310590   -0.319415734966    2.502885026153
 C    0.725331689410   -2.182415734966    1.667885026153
 C   -0.122668310590   -1.633415734966    2.619885026153
 H    1.160331689410    0.535584265034   -0.296114973847
 H    1.846331689410   -1.819415734966   -0.122114973847
 H    0.107331689410    2.420584265034    0.616885026153
 H   -0.372668310590    2.407584265034    2.303885026153
 H   -1.172668310590    0.095584265034    3.267885026153
 H    1.017331689410   -3.218415734966    1.736885026153
 H   -0.483668310590   -2.236415734966    3.438885026153
 H   -1.569132310590    2.056146265034    1.014815026153
