16
0 1 
 C   -1.494557393147    0.552528906710   -0.408183055628
 C   -2.711557393147    1.440528906710   -0.532183055628
 H   -1.709557393147   -0.291471093290    0.245816944372
 H   -1.218557393147    0.171528906710   -1.392183055628
 H   -0.654557393147    1.118528906710   -0.012183055628
 H   -2.508557393147    2.190528906710   -1.296183055628
 H   -2.946317393147    1.943178906710    0.417676944372
 H   -3.577917393147    0.839368906710   -0.845273055628
 C    1.465442606853   -0.687471093290    0.193816944372
 C    2.733442606853   -1.313471093290    0.756816944372
 H    1.457442606853    0.373528906710    0.436816944372
 H    1.451442606853   -0.792471093290   -0.891183055628
 H    0.579442606853   -1.159471093290    0.607816944372
 H    3.561442606853   -0.737471093290    0.345816944372
 H    2.785032606853   -1.213151093290    1.851016944372
 H    2.866742606853   -2.348750093290    0.409786944372
