26
0 1 
 C   -0.114963684890   -2.141916081130   -2.719837559358
 C    0.326036315110   -1.233916081130   -3.873837559358
 C   -0.154963684890   -3.619916081130   -3.126837559358
 H    0.588036315110   -2.032916081130   -1.898837559358
 H   -1.103963684890   -1.849916081130   -2.373837559358
 H   -0.307963684890   -1.448916081130   -4.736837559358
 H   -0.860963684890   -3.721916081130   -3.943837559358
 H    0.816036315110   -3.941916081130   -3.491837559358
 H    1.373466315110   -1.427046081130   -4.148760559358
 H    0.168066315110   -0.175306081130   -3.620085559358
 H   -0.453023684890   -4.288215081130   -2.305537559358
 C    1.274036315110    2.167083918870    3.361162440642
 C    0.332036315110   -0.052916081130    0.426162440642
 C    1.060036315110    0.533083918870    1.463162440642
 C   -0.977963684890    0.327083918870    0.192162440642
 C    0.484036315110    1.525083918870    2.248162440642
 C   -1.561963684890    1.303083918870    0.975162440642
 C   -0.840963684890    1.899083918870    2.005162440642
 H    0.781036315110   -0.833916081130   -0.158837559358
 H    2.077036315110    0.215083918870    1.646162440642
 H   -1.550963684890   -0.151916081130   -0.588837559358
 H   -2.592963684890    1.569083918870    0.829162440642
 H    1.086036315110    3.237083918870    3.342162440642
 H    2.334036315110    2.017083918870    3.162162440642
 H   -1.308963684890    2.662083918870    2.611162440642
 H    1.034426315110    1.767253918870    4.357512440642
