18
0 1 
 C   -0.358746694809   -0.141606817680    1.906870590298
 C   -1.568746694809   -0.925606817680    2.423870590298
 S   -0.819746694809    1.415393182320    1.106870590298
 H    0.302253305191    0.070393182320    2.751870590298
 H    0.188253305191   -0.765606817680    1.201870590298
 H   -1.933746694809   -0.412606817680    3.314870590298
 H    0.382253305191    2.010393182320    1.168870590298
 H   -1.261406694809   -1.946035817680    2.696390590298
 H   -2.361638694809   -0.952203817680    1.661890590298
 C    0.461253305191   -1.239606817680   -1.703129409702
 C   -0.552746694809   -0.646606817680   -2.676129409702
 S    1.717253305191   -0.064606817680   -1.124129409702
 H   -0.065746694809   -1.670606817680   -0.848129409702
 H    0.981253305191   -2.059606817680   -2.204129409702
 H   -0.010746694809   -0.157606817680   -3.489129409702
 H    1.704253305191   -0.444606817680    0.160870590298
 H   -1.195098694809    0.090008182320   -2.171369409702
 H   -1.162500694809   -1.448079817680   -3.118669409702
