30
0 1 
 C    1.527980843375   -3.291223817568   -0.763263157876
 C   -0.170019156625    0.089776182432   -1.255263157876
 C    0.028980843375   -1.270223817568   -1.018263157876
 C    0.927980843375    0.917776182432   -1.476263157876
 C    1.313980843375   -1.811223817568   -0.986263157876
 C    2.209980843375    0.385776182432   -1.459263157876
 C    2.396980843375   -0.972223817568   -1.227263157876
 O    0.754980843375    2.250776182432   -1.708263157876
 H   -1.170019156625    0.498776182432   -1.256263157876
 H   -0.805019156625   -1.904223817568   -0.788263157876
 H   -0.170019156625    2.505776182432   -1.643263157876
 H    3.049980843375    1.042776182432   -1.602263157876
 H    2.552980843375   -3.557223817568   -1.003263157876
 H    0.881980843375   -3.794223817568   -1.465263157876
 H    3.394980843375   -1.377223817568   -1.218263157876
 H    1.276770843375   -3.696913817568    0.227853842124
 C   -1.785019156625    0.676776182432    2.116736842124
 C   -2.930019156625   -0.339223817568    1.945736842124
 C   -2.189019156625    2.049776182432    1.589736842124
 C   -1.332019156625    0.754776182432    3.581736842124
 H   -0.942019156625    0.324776182432    1.519736842124
 H   -3.126019156625   -0.422223817568    0.875736842124
 H   -2.928019156625    2.514776182432    2.243736842124
 H   -1.316019156625    2.699776182432    1.524736842124
 H   -2.611019156625    1.953776182432    0.589736842124
 H   -2.113019156625    1.207776182432    4.193736842124
 H   -1.127019156625   -0.238223817568    3.975736842124
 H   -3.855949156625   -0.019573817568    2.446218842124
 H   -2.576529156625   -1.322643817568    2.289142842124
 H   -0.395609156625    1.314596182432    3.722234842124
