30
0 1 
 C   -2.664304494921    0.918575691743    1.113016168611
 C   -1.681304494921   -0.004424308257    1.804016168611
 C   -3.848304494921    1.014575691743    2.054016168611
 H   -2.959304494921    0.530575691743    0.138016168611
 H   -2.210304494921    1.904575691743    1.004016168611
 H   -1.863304494921   -1.036424308257    1.502016168611
 H   -0.660304494921    0.295575691743    1.572016168611
 H   -4.554304494921    0.221575691743    1.808016168611
 H   -4.341304494921    1.983575691743    1.969016168611
 H   -1.903656494921    0.122095691743    2.873853168611
 H   -3.437977494921    0.863215691743    3.063333168611
 C   -1.061304494921   -0.641424308257   -2.006983831389
 C   -0.801304494921   -1.324424308257   -3.342983831389
 C    0.132695505079   -0.368424308257   -1.126983831389
 C    0.668695505079    0.923575691743   -1.027983831389
 C    0.680695505079   -1.386424308257   -0.335983831389
 C    1.740695505079    1.191575691743   -0.163983831389
 C    1.746695505079   -1.125424308257    0.527016168611
 C    2.277695505079    0.164575691743    0.609016168611
 O    3.309695505079    0.451575691743    1.449016168611
 H   -1.593304494921    0.293575691743   -2.177983831389
 H   -1.738304494921   -1.275424308257   -1.431983831389
 H   -0.234304494921   -2.244424308257   -3.194983831389
 H    0.249695505079    1.726575691743   -1.618983831389
 H    0.266695505079   -2.384424308257   -0.387983831389
 H    2.142695505079    2.191575691743   -0.095983831389
 H    2.169695505079   -1.911424308257    1.132016168611
 H    3.659695505079    1.321575691743    1.240016168611
 H   -0.277550494921   -0.636664308257   -4.023183831389
 H   -1.791379494921   -1.539944308257   -3.771123831389
