26
0 1 
 C   -2.154093855440   -1.189251228023    1.215553519621
 C   -1.036093855440    0.765748771977    0.005553519621
 C   -1.504093855440   -0.555251228023   -0.016446480379
 C   -0.384093855440    1.319748771977   -1.096446480379
 C   -0.276093855440    0.589748771977   -2.283446480379
 C   -1.418093855440   -1.285251228023   -1.209446480379
 C   -0.737093855440   -0.743251228023   -2.339446480379
 H   -1.131093855440    1.350748771977    0.909553519621
 H   -0.020093855440    2.332748771977   -1.049446480379
 H   -1.437093855440   -1.102251228023    2.033553519621
 H   -2.325093855440   -2.254251228023    1.048553519621
 H    0.209906144560    1.028748771977   -3.143446480379
 H   -1.805093855440   -2.294251228023   -1.256446480379
 H   -0.631093855440   -1.322251228023   -3.247446480379
 H   -3.092557855440   -0.708957228023    1.529563519621
 C    1.891906144560    0.279748771977    2.069553519621
 C    2.539906144560    1.621748771977    1.756553519621
 C    2.382906144560   -0.805251228023    1.103553519621
 H    2.118906144560   -0.005251228023    3.098553519621
 H    0.809906144560    0.365748771977    1.979553519621
 H    2.458906144560    1.780748771977    0.676553519621
 H    2.015906144560   -0.591251228023    0.098553519621
 H    3.472906144560   -0.820251228023    1.091553519621
 H    3.600756144560    1.584934771977    2.045053519621
 H    2.003796144560    2.465935771977    2.214743519621
 H    2.025646144560   -1.792892118023    1.430553519621
