19
0 1 
 C    1.885573924354   -1.368560132891    0.681374148117
 C    1.211573924354   -1.868560132891    1.956374148117
 H    1.568573924354   -1.966560132891   -0.173625851883
 H    1.622573924354   -0.329560132891    0.504374148117
 H    2.969573924354   -1.410560132891    0.781374148117
 H    0.133573924354   -1.830560132891    1.799374148117
 H    1.502211924354   -2.901146132891    2.199884148117
 H    1.433243924354   -1.214451132891    2.812534148117
 C   -0.955426075646    0.811439867109   -0.435625851883
 C   -1.713426075646    2.149439867109   -0.439625851883
 C   -0.489426075646    0.332439867109   -1.797625851883
 H   -0.092426075646    0.911439867109    0.219374148117
 H   -1.601426075646    0.033439867109   -0.029625851883
 H   -2.621426075646    2.051439867109   -1.021625851883
 H    0.326573924354    0.954439867109   -2.163625851883
 H   -0.123426075646   -0.691560132891   -1.711625851883
 H   -1.313426075646    0.350439867109   -2.508625851883
 H   -1.977536075646    2.426503467109    0.591624148117
 H   -1.098790075646    2.947539267109   -0.881505851883
