34
0 1 
 C   -3.330180560211   -0.333212023978    4.382846632126
 C   -0.010180560211    0.423787976022    2.671846632126
 C   -1.057180560211   -0.271212023978    3.266846632126
 C   -0.091180560211    1.799787976022    2.510846632126
 C   -2.190180560211    0.404787976022    3.722846632126
 C   -1.211180560211    2.481787976022    2.960846632126
 C   -2.257180560211    1.785787976022    3.558846632126
 H    0.855819439789   -0.078212023978    2.279846632126
 H   -0.989180560211   -1.346212023978    3.300846632126
 H    0.717819439789    2.340787976022    2.035846632126
 H   -1.276180560211    3.554787976022    2.839846632126
 H   -4.083180560211   -0.553212023978    3.625846632126
 H   -3.783180560211    0.320787976022    5.127846632126
 H   -3.130180560211    2.325787976022    3.897846632126
 H   -3.026632560211   -1.270409023978    4.872255632126
 C    2.943819439789   -0.454212023978   -4.594153367874
 C    0.716819439789   -0.079212023978   -1.609153367874
 C    1.218819439789   -0.865212023978   -2.672153367874
 C    2.148819439789   -0.049212023978   -3.403153367874
 C    2.174819439789    1.156787976022   -2.778153367874
 C   -0.221180560211   -0.561212023978   -0.702153367874
 C   -0.671180560211   -1.856212023978   -0.866153367874
 C   -0.207180560211   -2.652212023978   -1.920153367874
 C    0.730819439789   -2.171212023978   -2.827153367874
 N    1.333819439789    1.138787976022   -1.695153367874
 H   -0.600180560211    0.066787976022    0.089846632126
 H   -1.406180560211   -2.257212023978   -0.179153367874
 H    1.168819439789    1.934787976022   -1.089153367874
 H   -0.588180560211   -3.660212023978   -2.031153367874
 H    2.781819439789    2.002787976022   -3.088153367874
 H    1.067819439789   -2.788212023978   -3.649153367874
 H    3.101819439789    0.422787976022   -5.225153367874
 H    2.367819439789   -1.173212023978   -5.177153367874
 H    3.921130439789   -0.895990023978   -4.349825367874
