20
0 1 
 C   -1.234054951261    0.524448886249   -2.703899975764
 C   -0.235054951261    1.413448886249   -1.957899975764
 O   -0.198054951261    1.323448886249   -0.702899975764
 O    0.511945048739    2.184448886249   -2.592899975764
 H   -2.208054951261    0.598448886249   -2.216899975764
 H   -0.882054951261   -0.503551113751   -2.614899975764
 H   -1.332764951261    0.796090886249   -3.765249975764
 C   -1.342054951261   -2.114551113751    1.034100024236
 C    0.612945048739   -0.825551113751    1.726100024236
 N   -0.416054951261   -0.983551113751    0.906100024236
 N    0.914945048739   -1.721551113751    2.641100024236
 N    1.350945048739    0.233448886249    1.568100024236
 H   -0.602054951261   -0.236551113751    0.235100024236
 H   -1.844054951261   -2.050551113751    2.003100024236
 H   -0.802054951261   -3.061551113751    0.982100024236
 H    0.324945048739   -2.525551113751    2.776100024236
 H    1.698945048739   -1.574551113751    3.258100024236
 H    1.095945048739    0.865448886249    0.816100024236
 H    2.152945048739    0.405448886249    2.153100024236
 H   -2.111834951261   -2.110920113751    0.248340024236
