22
1 1 
 C    1.691890703136    0.924947553827    0.419366603084
 C    2.302890703136    1.624947553827   -0.785633396916
 C    2.674890703136    0.369947553827    1.363366603084
 H    1.101890703136    1.655947553827    0.975366603084
 H    1.014890703136    0.135947553827    0.106366603084
 H    3.055890703136    2.323947553827   -0.420633396916
 H    3.368890703136    1.146947553827    1.684366603084
 H    2.151890703136   -0.013052446173    2.240366603084
 H    3.224890703136   -0.454052446173    0.912366603084
 H    2.799269703136    0.914497553827   -1.463033396916
 H    1.522995703136    2.209867553827   -1.295173396916
 C   -1.580109296864   -0.840052446173   -0.452633396916
 C   -2.225109296864   -2.165052446173   -0.820633396916
 N   -2.515109296864    0.075947553827    0.233366603084
 H   -0.730109296864   -1.039052446173    0.207366603084
 H   -1.193109296864   -0.374052446173   -1.365633396916
 H   -2.986109296864   -1.978052446173   -1.581633396916
 H   -2.726109296864   -2.592052446173    0.051366603084
 H   -2.866109296864   -0.327052446173    1.095366603084
 H   -2.072109296864    0.955947553827    0.472366603084
 H   -3.317109296864    0.290947553827   -0.347633396916
 H   -1.510592296864   -2.896722446173   -1.225763396916
