19
0 1 
 C    1.735057719126   -1.052535517176   -0.895519330424
 C    2.696057719126   -0.073535517176   -1.586519330424
 H    2.063057719126   -2.079535517176   -1.065519330424
 H    1.697057719126   -0.866535517176    0.177480669576
 H    0.724057719126   -0.931535517176   -1.261519330424
 H    2.269057719126    0.912464482824   -1.393519330424
 H    2.658607719126   -0.196994517176   -2.678927330424
 H    3.701157719126   -0.003609517176   -1.145065330424
 C   -1.677942280874   -0.158535517176    0.559480669576
 C   -1.276942280874    0.050464482824    2.035480669576
 C   -1.584942280874    1.203464482824   -0.083519330424
 H   -2.683942280874   -0.572535517176    0.479480669576
 H   -0.957942280874   -0.837535517176    0.115480669576
 H   -2.149942280874    0.313464482824    2.635480669576
 H   -0.782942280874   -0.841535517176    2.425480669576
 H   -2.508942280874    1.746464482824    0.100480669576
 H   -1.394942280874    1.131464482824   -1.155519330424
 H   -0.591802280874    0.908569482824    1.970340669576
 H   -0.748132280874    1.682662482824    0.445744669576
