21
0 1 
 C    1.589304189732    2.981153926157    1.423175986652
 C    1.243304189732    2.212153926157    0.175175986652
 O    0.516304189732    2.704153926157   -0.678824013348
 N    1.780304189732    1.007153926157    0.047175986652
 H    2.265304189732    3.779153926157    1.144175986652
 H    2.150304189732    2.337153926157    2.100175986652
 H    1.612304189732    0.473153926157   -0.794824013348
 H    2.370304189732    0.646153926157    0.773175986652
 H    0.703683189732    3.378403926157    1.940736986652
 C    0.465304189732   -3.209846073843    0.413175986652
 C   -1.618695810268   -0.246846073843    0.087175986652
 C   -0.503695810268   -2.139846073843   -0.014824013348
 C   -1.247695810268   -2.024846073843   -1.151824013348
 N   -0.759695810268   -1.015846073843    0.744175986652
 N   -1.930695810268   -0.830846073843   -1.064824013348
 H   -2.006695810268    0.704153926157    0.431175986652
 H   -2.581695810268   -0.452846073843   -1.744824013348
 H   -1.274695810268   -2.736846073843   -1.963824013348
 H    0.073304189732   -4.173846073843    0.091175986652
 H    0.524304189732   -3.222846073843    1.502175986652
 H    1.473904189732   -3.073146073843   -0.004005013348
