26
0 1 
 C   -0.796209424443    3.861671642070   -0.255268072109
 C    0.067790575557    4.470671642070    0.833731927891
 H   -1.645209424443    3.344671642070    0.192731927891
 H   -1.167209424443    4.645671642070   -0.917268072109
 H   -0.223209424443    3.147671642070   -0.839268072109
 H    0.858790575557    5.036671642070    0.342731927891
 H    0.516469075557    3.670231642070    1.440341927891
 H   -0.534038924443    5.165031642070    1.438431927891
 C   -1.204209424443    0.190671642070    0.693731927891
 C   -2.067209424443   -0.544328357930    1.705731927891
 C   -0.178209424443   -0.692328357930    0.039731927891
 C    1.015790575557   -0.978328357930    0.674731927891
 C   -0.435209424443   -1.269328357930   -1.209268072109
 C    1.941790575557   -1.834328357930    0.077731927891
 C    0.497790575557   -2.089328357930   -1.809268072109
 C    1.671790575557   -2.389328357930   -1.157268072109
 H   -1.837209424443    0.650671642070   -0.067268072109
 H   -0.673209424443    0.984671642070    1.206731927891
 H   -1.406209424443   -1.071328357930    2.396731927891
 H    1.229790575557   -0.551328357930    1.644731927891
 H   -1.375209424443   -1.076328357930   -1.706268072109
 H    2.862790575557   -2.081328357930    0.588731927891
 H    0.288790575557   -2.534328357930   -2.771268072109
 H    2.369790575557   -3.085328357930   -1.596268072109
 H   -2.729574424443   -1.259678357930    1.196281927891
 H   -2.654330424443    0.187031642070    2.280531927891
