16
0 1 
 C    0.824897983932    1.389383017195    1.192925009435
 C   -0.213102016068    1.435383017195    2.300925009435
 H    1.046897983932    0.368383017195    0.894925009435
 H    0.452897983932    1.920383017195    0.317925009435
 H    1.743897983932    1.871383017195    1.531925009435
 H   -1.143102016068    0.996383017195    1.935925009435
 H   -0.402102016068    2.486383017195    2.522925009435
 H    0.103993983932    0.913103017195    3.215626009435
 C   -0.333102016068   -1.512616982805   -0.985074990565
 C   -0.267102016068   -1.320616982805   -2.506074990565
 H    0.610897983932   -1.901616982805   -0.597074990565
 H   -0.564102016068   -0.561616982805   -0.505074990565
 H   -1.143102016068   -2.202616982805   -0.769074990565
 H   -1.264102016068   -1.030616982805   -2.846074990565
 H    0.009683983932   -2.270566982805   -2.986689990565
 H    0.410216983932   -0.488156982805   -2.747409990565
