30
0 1 
 C   -1.837390922873    0.515022519444   -1.156787603788
 C   -2.624390922873    1.087022519444   -2.339787603788
 C   -0.360390922873    0.708022519444   -1.299787603788
 C    0.326609077127    0.065022519444   -2.323787603788
 C    0.332609077127    1.561022519444   -0.446787603788
 C    1.695609077127    0.266022519444   -2.492787603788
 C    1.703609077127    1.752022519444   -0.608787603788
 C    2.385609077127    1.110022519444   -1.637787603788
 H   -2.184390922873    0.988022519444   -0.238787603788
 H   -2.032390922873   -0.549977480556   -1.067787603788
 H   -2.234390922873    0.618022519444   -3.239787603788
 H   -0.197390922873   -0.600977480556   -2.993787603788
 H   -0.184390922873    2.065022519444    0.353212396212
 H    2.219609077127   -0.238977480556   -3.292787603788
 H    2.236609077127    2.396022519444    0.075212396212
 H    3.445609077127    1.256022519444   -1.755787603788
 H   -2.453818822873    2.171322519444   -2.411927603788
 H   -3.690736922873    0.821333519444   -2.291677603788
 C    1.433609077127   -1.838977480556    0.660212396212
 C   -1.003390922873   -1.731977480556    1.545212396212
 C    0.312609077127   -1.394977480556    1.553212396212
 C   -0.674390922873   -0.307977480556    3.189212396212
 N   -1.593390922873   -1.039977480556    2.575212396212
 N    0.496609077127   -0.498977480556    2.588212396212
 H   -1.485390922873   -2.406977480556    0.856212396212
 H   -2.592390922873   -1.004977480556    2.776212396212
 H    1.872609077127   -0.951977480556    0.210212396212
 H    1.029609077127   -2.458977480556   -0.141787603788
 H   -0.858390922873    0.353022519444    4.029212396212
 H    2.222490077127   -2.389610480556    1.193572396212
