33
0 1 
 C    0.943361447994    2.161430120766   -0.689047647982
 C    1.880361447994    3.340430120766   -0.956047647982
 C    1.281361447994    0.913430120766   -1.469047647982
 C    2.266361447994    0.033430120766   -1.014047647982
 C    0.575361447994    0.602430120766   -2.634047647982
 C    2.556361447994   -1.134569879234   -1.727047647982
 C    0.858361447994   -0.562569879234   -3.346047647982
 C    1.847361447994   -1.433569879234   -2.893047647982
 H    0.979361447994    1.921430120766    0.374952352018
 H   -0.082638552006    2.456430120766   -0.917047647982
 H    2.892361447994    3.044430120766   -0.674047647982
 H    2.810361447994    0.251430120766   -0.107047647982
 H   -0.199638552006    1.266430120766   -2.990047647982
 H    3.323361447994   -1.809569879234   -1.375047647982
 H    0.299361447994   -0.806569879234   -4.236047647982
 H    2.065361447994   -2.340569879234   -3.441047647982
 H    1.571413447994    4.196440120766   -0.338151647982
 H    1.899049447994    3.602780120766   -2.024140647982
 C   -4.009638552006    0.008430120766    2.801952352018
 C   -0.943638552006   -0.558569879234    0.642952352018
 C   -0.056638552006   -1.132569879234    1.545952352018
 C   -2.217638552006   -0.181569879234    1.056952352018
 C   -2.625638552006   -0.386569879234    2.370952352018
 C   -0.455638552006   -1.345569879234    2.861952352018
 C   -1.739638552006   -0.972569879234    3.272952352018
 H   -0.654638552006   -0.426569879234   -0.387047647982
 H    0.935361447994   -1.421569879234    1.223952352018
 H   -2.892638552006    0.282430120766    0.352952352018
 H    0.240361447994   -1.780569879234    3.560952352018
 H   -4.324638552006    0.879430120766    2.224952352018
 H   -3.977638552006    0.317430120766    3.847952352018
 H   -2.037638552006   -1.120569879234    4.296952352018
 H   -4.756998552006   -0.790519879234    2.687305252018
