21
0 1 
 C   -0.244214183706    0.260316698120    3.026924740545
 C   -0.892214183706   -1.313683301880    1.033924740545
 C   -0.041214183706   -0.782683301880    1.955924740545
 C    1.095785816294   -2.211683301880    0.722924740545
 N   -0.151214183706   -2.180683301880    0.269924740545
 N    1.199785816294   -1.355683301880    1.740924740545
 H   -1.927214183706   -1.066683301880    0.876924740545
 H   -0.412214183706   -2.376683301880   -0.681075259455
 H    0.333785816294    1.137316698120    2.731924740545
 H    0.176785816294   -0.113683301880    3.956924740545
 H    1.929785816294   -2.728683301880    0.261924740545
 H   -1.284984183706    0.570166698120    3.202434740545
 C    0.823785816294    1.237316698120   -0.924075259455
 C   -1.706214183706    1.577316698120   -2.012075259455
 S    0.041785816294    1.910316698120   -2.390075259455
 H    0.597785816294    0.175316698120   -0.845075259455
 H    1.903785816294    1.361316698120   -1.001075259455
 H    0.473785816294    1.758316698120   -0.033075259455
 H   -1.822214183706    0.514316698120   -1.795075259455
 H   -2.288214183706    1.809316698120   -2.906075259455
 H   -2.094124183706    2.174926698120   -1.173985259455
