18
0 1 
 C   -1.714578551358    0.515274844809   -1.484230858935
 C   -0.479578551358    1.217274844809   -2.022230858935
 O   -0.571578551358    2.092274844809   -2.881230858935
 N    0.681421448642    0.856274844809   -1.500230858935
 H    1.533421448642    1.254274844809   -1.858230858935
 H    0.696421448642    0.101274844809   -0.818230858935
 H   -2.170578551358    1.174274844809   -0.759230858935
 H   -1.438578551358   -0.410725155191   -0.984230858935
 H   -2.451668551358    0.286594844809   -2.268070858935
 C   -0.570578551358   -1.440725155191    2.892769141065
 C    0.512421448642   -1.150725155191    1.880769141065
 O    0.284421448642   -1.152725155191    0.672769141065
 N    1.720421448642   -0.926725155191    2.368769141065
 H   -0.306578551358   -0.994725155191    3.849769141065
 H   -0.597578551358   -2.521725155191    3.026769141065
 H    2.463421448642   -0.672725155191    1.739769141065
 H    1.840421448642   -0.842725155191    3.373769141065
 H   -1.565438551358   -1.079485155191    2.593169141065
