30
0 1 
 C    2.705571870723    1.491457784405    1.724338863556
 C    0.513571870723   -0.112542215595   -0.889661136444
 C    0.821571870723    0.988457784405   -0.047661136444
 C    1.989571870723    0.631457784405    0.721338863556
 C    2.325571870723   -0.630542215595    0.330338863556
 C   -0.563428129277   -0.101542215595   -1.768661136444
 C   -1.353428129277    1.034457784405   -1.811661136444
 C    0.003571870723    2.127457784405   -0.108661136444
 C   -1.077428129277    2.138457784405   -0.992661136444
 N    1.449571870723   -1.079542215595   -0.632661136444
 H    1.483571870723   -2.004542215595   -1.048661136444
 H   -0.771428129277   -0.953542215595   -2.401661136444
 H    3.156571870723   -1.201542215595    0.728338863556
 H   -2.198428129277    1.070457784405   -2.484661136444
 H    0.204571870723    2.971457784405    0.529338863556
 H    3.106571870723    0.860457784405    2.516338863556
 H    1.967571870723    2.142457784405    2.196338863556
 H   -1.719428129277    3.009457784405   -1.043661136444
 H    3.494811870723    2.122417784405    1.289608863556
 C   -2.215428129277   -1.435542215595    1.300338863556
 C   -1.091428129277   -2.440542215595    1.541338863556
 C   -3.066428129277   -1.795542215595    0.091338863556
 H   -2.864428129277   -1.394542215595    2.175338863556
 H   -1.781428129277   -0.446542215595    1.145338863556
 H   -0.464428129277   -2.488542215595    0.651338863556
 H   -1.524428129277   -3.431542215595    1.695338863556
 H   -2.430428129277   -1.814542215595   -0.794661136444
 H   -3.480428129277   -2.798542215595    0.209338863556
 H   -0.465688129277   -2.175452215595    2.406308863556
 H   -3.850268129277   -1.037152215595   -0.051651136444
