17
0 1 
 C    2.169389331470    1.405649500199    0.139902326939
 C    2.940389331470    0.663649500199   -0.955097673061
 H    2.859389331470    2.006649500199    0.731902326939
 H    1.437389331470    2.067649500199   -0.321097673061
 H    1.660389331470    0.696649500199    0.791902326939
 H    3.454389331470    1.405649500199   -1.564097673061
 H    3.686971331470   -0.000218499801   -0.494777673061
 H    2.249483331470    0.098428500199   -1.597887673061
 C   -1.144610668530   -0.516350499801    0.121902326939
 C   -2.105610668530    0.357649500199    0.936902326939
 O   -1.769610668530   -1.752350499801   -0.182097673061
 H   -0.881610668530   -0.000350499801   -0.803097673061
 H   -0.238610668530   -0.697350499801    0.700902326939
 H   -2.335610668530   -0.171350499801    1.861902326939
 H   -1.284610668530   -2.175350499801   -0.903097673061
 H   -3.040277668530    0.522368500199    0.380782326939
 H   -1.623716668530    1.309136500199    1.206072326939
