16
0 1 
 C   -0.793970781860    1.820420288678    0.836076025079
 C   -2.164970781860    1.284420288678    1.267076025079
 H   -0.001970781860    1.187420288678    1.237076025079
 H   -0.739970781860    1.827420288678   -0.252923974921
 H   -0.658970781860    2.839420288678    1.204076025079
 H   -2.942970781860    1.937420288678    0.902076025079
 H   -2.198790781860    1.247719288678    2.365946025079
 H   -2.354140781860    0.286758288678    0.844126025079
 C    0.916029218140   -1.041579711322   -1.037923974921
 C    2.050029218140   -2.057579711322   -1.063923974921
 H    1.025029218140   -0.310579711322   -1.837923974921
 H   -0.032970781860   -1.560579711322   -1.175923974921
 H    0.901029218140   -0.534579711322   -0.073923974921
 H    2.098029218140   -2.505579711322   -2.057923974921
 H    1.789029218140   -2.848579711322   -0.363923974921
 H    3.031929218140   -1.633904711322   -0.806283974921
