20
0 1 
 C   -1.125341112478    0.286186219034   -0.053854831192
 C   -2.230341112478    0.424186219034    1.017145168808
 C   -1.687341112479    0.367186219034   -1.474854831192
 O   -0.176341112479    1.330186219034    0.134145168808
 H   -0.629341112478   -0.674813780966    0.063145168808
 H   -2.894341112479   -0.431813780966    0.906145168808
 H   -2.144341112479    1.342186219034   -1.645854831192
 H   -0.890341112478    0.214186219034   -2.203854831192
 H   -2.444341112478   -0.402813780966   -1.619854831192
 H    0.186658887521    1.572186219034   -0.725854831192
 H   -2.796671112479    1.363776219034    0.936890168808
 H   -1.801031112479    0.375126219034    2.028722168808
 C    2.278658887521   -1.194813780966    0.911145168808
 C    2.833658887522   -1.305813780966   -0.497854831192
 H    1.446658887521   -0.497813780966    0.947145168808
 H    1.951658887521   -2.171813780966    1.265145168808
 H    3.063658887522   -0.820813780966    1.567145168808
 H    3.672658887522   -1.995813780966   -0.474854831192
 H    3.179808887521   -0.315563780966   -0.828896831192
 H    2.072888887522   -1.722983780966   -1.174014831192
