24
0 1 
 C    0.930862590030   -2.103849570352    3.331935148116
 C   -0.597137409970   -0.350849570352   -0.297064851884
 C    0.753862590030   -0.219849570352    0.022935148116
 C   -1.453137409970   -1.039849570352    0.556935148116
 C    1.243862590030   -0.785849570352    1.200935148116
 C   -0.954137409970   -1.603849570352    1.732935148116
 C    0.396862590030   -1.483849570352    2.064935148116
 O   -1.087137409970    0.192150429648   -1.446064851884
 H   -0.375137409970    0.554150429648   -1.983064851884
 H    1.417862590030    0.320150429648   -0.634064851884
 H   -2.500137409970   -1.138849570352    0.301935148116
 H    2.293862590030   -0.679849570352    1.445935148116
 H   -1.625137409970   -2.143849570352    2.390935148116
 H    1.897862590030   -2.558849570352    3.116935148116
 H    0.257862590030   -2.902849570352    3.649935148116
 H    1.049072590030   -1.383029570352    4.154395148116
 C    0.525862590030    2.521150429648   -3.005064851884
 C    0.211862590030    4.000150429648   -3.164064851884
 H   -0.403137409970    1.968150429648   -2.942064851884
 H    1.067862590030    2.180150429648   -3.888064851884
 H    1.147862590030    2.351150429648   -2.128064851884
 H    1.028862590030    4.471150429648   -3.711064851884
 H    0.106962590030    4.496110429648   -2.187834851884
 H   -0.717377409970    4.117070429648   -3.740994851884
