16
0 1 
 C    2.081325047339   -0.338784325208    0.082544003804
 C    2.542325047339   -0.683784325208   -1.347455996196
 H    2.460325047339    0.639215674792    0.355544003804
 H    0.996325047339   -0.346784325208    0.130544003804
 H    2.451325047339   -1.078784325208    0.793544003804
 H    2.276325047339   -1.724784325208   -1.540455996196
 H    3.635080047339   -0.582099325208   -1.421928996196
 H    2.013339047339   -0.087512155208   -2.105501996196
 C   -1.574674952661    0.341215674792    0.512544003804
 C   -3.047674952661    0.681215674792    0.751544003804
 H   -1.470674952661   -0.372784325208   -0.303455996196
 H   -1.039674952661    1.252215674792    0.243544003804
 H   -1.138674952661   -0.075784325208    1.419544003804
 H   -3.467674952661    1.085215674792   -0.169455996196
 H   -3.081674952661    1.464215674792    1.507544003804
 H   -3.649825652661   -0.170694775208    1.100346003804
