19
0 1 
 C    0.400399101266    0.558263316713   -1.197678183971
 C    1.267399101266    0.891263316713   -2.383678183971
 C   -0.132600898734    1.888263316713   -0.738678183971
 H    1.018399101266    0.142263316713   -0.408678183971
 H   -0.404600898734   -0.127736683287   -1.463678183971
 H    2.086399101266    0.176263316713   -2.471678183971
 H    0.657399101266    0.909263316713   -3.286678183971
 H   -0.395600898734    1.864263316713    0.314321816029
 H   -0.989600898734    2.168263316713   -1.338678183971
 H    1.629869101266    1.905133316713   -2.158538183971
 H    0.678659101266    2.602553316713   -0.942758183971
 C   -0.833600898734   -1.290736683287    1.457321816029
 C   -0.684600898734   -2.023736683287    2.785321816029
 H   -0.746600898734   -0.213736683287    1.605321816029
 H   -0.042600898734   -1.609736683287    0.777321816029
 H   -1.798600898734   -1.525736683287    1.005321816029
 H    0.219399101266   -1.639736683287    3.248321816029
 H   -1.549740898734   -1.826496683287    3.435422816029
 H   -0.565140898734   -3.102449683287    2.606135816029
