21
0 1 
 C    2.552523192272   -2.459999167456   -2.252299101659
 C   -0.169476807728   -0.936999167456   -0.407299101659
 C    1.547523192272   -2.027999167456   -1.228299101659
 C    1.364523192272   -2.445999167456    0.051700898341
 N    0.573523192272   -1.089999167456   -1.496299101659
 N    0.285523192272   -1.745999167456    0.545700898341
 H   -1.014476807728   -0.268999167456   -0.324299101659
 H   -0.101476807728   -1.819999167456    1.479700898341
 H    1.959523192272   -3.184999167456    0.574700898341
 H    3.459523192272   -2.772999167456   -1.734299101659
 H    2.808523192272   -1.605999167456   -2.881299101659
 H    2.198356192272   -3.284949167456   -2.887927801659
 C   -2.243476807728    3.052000832544    0.030700898341
 C   -1.426476807728    2.424000832544    1.139700898341
 O   -1.573476807728    1.240000832544    1.434700898341
 N   -0.566476807728    3.208000832544    1.773700898341
 H   -1.842476807728    2.716000832544   -0.926299101659
 H   -2.148476807728    4.138000832544    0.077700898341
 H   -0.032476807728    2.803000832544    2.534700898341
 H   -0.425476807728    4.180000832544    1.520700898341
 H   -3.304163807728    2.769290832544    0.101557898341
