21
-1 1 
 C   -2.079587262392   -2.020252058584    0.839219443319
 C   -1.112587262392   -0.959252058584    1.346219443319
 O    0.027412737608   -1.275252058584    1.707219443319
 O   -1.477587262392    0.222747941416    1.365219443319
 H   -1.926587262392   -2.124252058584   -0.235780556681
 H   -3.102587262392   -1.680252058584    0.996219443319
 H   -1.925077262392   -3.005094758584    1.304199443319
 C    0.858412737608    0.878747941416   -1.245780556681
 C    1.242412737608    1.965747941416   -0.211780556681
 C    0.681412737608    1.497747941416   -2.619780556681
 C    1.894412737608   -0.266252058584   -1.242780556681
 H   -0.105587262392    0.464747941416   -0.948780556681
 H    2.196412737608    2.392747941416   -0.524780556681
 H    1.571412737608    2.067747941416   -2.889780556681
 H    0.540412737608    0.729747941416   -3.374780556681
 H   -0.185587262392    2.156747941416   -2.642780556681
 H    2.825412737608    0.061747941416   -1.706780556681
 H    2.107412737608   -0.598252058584   -0.227780556681
 H    1.353542737608    1.531684941416    0.792829443319
 H    0.504862737608    2.781626941416   -0.192920556681
 H    1.485872737608   -1.130635058584   -1.786780556681
