28
0 1 
 C   -3.065589983638   -0.490236439710   -3.964368439987
 C   -1.768589983638   -0.288236439710   -3.197368439987
 O   -1.651589983638    0.596763560290   -2.349368439987
 N   -0.765589983638   -1.096236439710   -3.518368439987
 H   -3.297589983638   -1.555236439710   -4.019368439987
 H   -2.897589983638   -0.129236439710   -4.979368439987
 H    0.099410016362   -1.016236439710   -3.005368439987
 H   -0.895589983638   -1.825236439710   -4.204368439987
 H   -3.912123983638    0.054323560290   -3.520707439987
 C    3.602410016362    1.139763560290    1.269631560013
 C    1.571410016362    1.104763560290   -0.304368439987
 C    0.005410016362    0.097763560290    0.947631560013
 C    2.192410016362    0.812763560290    0.872631560013
 C    1.200410016362    0.187763560290    1.703631560013
 C   -1.152589983638   -0.477236439710    1.451631560013
 C   -1.120589983638   -0.975236439710    2.739631560013
 C    1.211410016362   -0.332236439710    3.001631560013
 C    0.046410016362   -0.903236439710    3.511631560013
 N    0.267410016362    0.666763560290   -0.271368439987
 H   -0.404589983638    0.780763560290   -1.030368439987
 H    2.043410016362    1.606763560290   -1.142368439987
 H   -2.035589983638   -0.532236439710    0.840631560013
 H    4.157410016362    1.504763560290    0.403631560013
 H    4.079410016362    0.223763560290    1.620631560013
 H   -2.008589983638   -1.430236439710    3.159631560013
 H    2.113410016362   -0.299236439710    3.595631560013
 H    0.043410016362   -1.306236439710    4.516631560013
 H    3.632560016362    1.891383560290    2.072223560013
