26
-1 1 
 C   -2.164028711837   -1.957001044050    2.697238535838
 C    0.351971288163   -0.002001044050    0.666238535838
 C    0.084971288163   -0.977001044050    1.657238535838
 C   -1.350028711837   -0.988001044050    1.866238535838
 C   -1.857028711837   -0.026001044050    1.063238535838
 C    1.629971288163    0.263998955950    0.205238535838
 C    2.681971288163   -0.499001044050    0.704238535838
 C    2.471971288163   -1.487001044050    1.683238535838
 C    1.169971288163   -1.753001044050    2.140238535838
 N   -0.836028711837    0.586998955950    0.361238535838
 H    1.801971288163    1.034998955950   -0.526761464162
 H    3.686971288163   -0.313001044050    0.348238535838
 H   -1.005028711837    1.199998955950   -0.443761464162
 H    3.308971288163   -2.065001044050    2.055238535838
 H   -2.913028711837    0.189998955950    0.941238535838
 H    0.995971288163   -2.541001044050    2.860238535838
 H   -1.933028711837   -2.962001044050    2.340238535838
 H   -3.223028711837   -1.774001044050    2.510238535838
 H   -1.971388711837   -1.916601044050    3.779488535838
 C   -0.306028711837    0.850998955950   -4.165761464162
 C   -0.404028711837    1.554998955950   -2.824761464162
 O   -1.484028711837    1.530998955950   -2.198761464162
 O    0.612971288163    2.170998955950   -2.411761464162
 H   -0.297028711837   -0.223001044050   -4.010761464162
 H    0.634971288163    1.107998955950   -4.656761464162
 H   -1.146948711837    1.112758955950   -4.824801464162
