20
0 1 
 C    2.486711096664   -0.441594776608   -0.752939436939
 C    0.915711096664   -1.719594776608    0.717060563061
 N   -0.241288903336   -1.670594776608    1.335060563061
 N    1.187711096664   -0.732594776608   -0.119939436939
 N    1.716711096664   -2.755594776608    0.944060563061
 H   -0.797288903336   -0.826594776608    1.239060563061
 H   -0.501288903336   -2.370594776608    2.018060563061
 H    0.473711096664   -0.000594776608   -0.148939436939
 H    2.568711096664   -2.872594776608    0.422060563061
 H    1.393711096664   -3.473594776608    1.581060563061
 H    2.323711096664   -0.143594776608   -1.789939436939
 H    3.168711096664   -1.292594776608   -0.714939436939
 H    2.889561096664    0.401241223392   -0.172129436939
 C   -1.142288903336    1.825405223392   -1.908939436939
 C   -1.522288903336    1.873405223392   -0.447939436939
 O   -0.911288903336    1.108405223392    0.319060563061
 O   -2.500288903336    2.581405223392   -0.137939436939
 H   -1.685288903336    1.001405223392   -2.377939436939
 H   -0.076288903336    1.626405223392   -2.014939436939
 H   -1.401638903336    2.760910223392   -2.426209436939
