27
0 1 
 C   -1.824988412883   -0.770211598670   -4.028831350228
 C   -1.393988412883   -0.694211598670   -5.490831350228
 H   -2.766988412883   -1.307211598670   -3.936831350228
 H   -1.066988412883   -1.313211598670   -3.468831350228
 H   -1.925988412883    0.227788401330   -3.611831350228
 H   -1.301988412883   -1.711211598670   -5.870831350228
 H   -2.120949412883   -0.144856598670   -6.107061350228
 H   -0.411442412883   -0.206191598670   -5.571081350228
 C    0.574011587117   -0.736211598670   -1.188831350228
 C    1.973011587117   -1.329211598670   -1.353831350228
 C    0.362011587117   -0.156211598670    0.193168649772
 C    0.518011587117   -0.953211598670    1.329168649772
 C    0.025011587117    1.184788401330    0.360168649772
 C    0.336011587117   -0.425211598670    2.603168649772
 C   -0.155988412883    1.721788401330    1.631168649772
 C   -0.003988412883    0.915788401330    2.750168649772
 O   -0.189988412883    1.446788401330    3.990168649772
 H    0.411011587117    0.030788401330   -1.946831350228
 H   -0.162988412883   -1.527211598670   -1.332831350228
 H    2.084011587117   -2.059211598670   -0.554831350228
 H    0.759011587117   -2.004211598670    1.225168649772
 H   -0.119988412883    1.808788401330   -0.505831350228
 H    0.456011587117   -1.064211598670    3.465168649772
 H   -0.414988412883    2.758788401330    1.761168649772
 H   -0.103988412883    0.795788401330    4.683168649772
 H    2.742287587117   -0.553889598670   -1.223101350228
 H    2.087946587117   -1.902442598670   -2.285601350228
