25
0 1 
 C   -2.555850937764   -2.891446051450   -1.544470308365
 C   -2.305850937764   -1.432446051450   -1.857470308365
 O   -2.847850937764   -0.530446051450   -1.222470308365
 N   -1.443850937764   -1.188446051450   -2.820470308365
 H   -2.668850937764   -3.437446051450   -2.482470308365
 H   -3.483850937764   -2.986446051450   -0.979470308365
 H   -1.256850937764   -0.226446051450   -3.064470308365
 H   -1.037850937764   -1.942446051450   -3.351470308365
 H   -1.723926937764   -3.321153051450   -0.967187308365
 C    0.473149062236   -1.651446051450    2.398529691635
 C    0.336149062236   -0.061446051450    0.468529691635
 C    0.913149062236   -0.399446051450    1.687529691635
 C    0.681149062236    1.113553948550   -0.188470308365
 C    1.602149062236    1.987553948550    0.383529691635
 C    1.806149062236    0.495553948550    2.278529691635
 C    2.133149062236    1.686553948550    1.628529691635
 O    1.967149062236    3.145553948550   -0.248470308365
 H   -0.380850937764   -0.728446051450    0.013529691635
 H    0.236149062236    1.345553948550   -1.145470308365
 H    1.117149062236   -1.841446051450    3.259529691635
 H    0.565149062236   -2.493446051450    1.711529691635
 H    2.231149062236    0.275553948550    3.249529691635
 H    1.527149062236    3.235553948550   -1.102470308365
 H    2.771149062236    2.408553948550    2.091529691635
 H   -0.569783937764   -1.550169051450    2.733244991635
