19
0 1 
 C    0.837713971070    1.074202690570   -0.111564993902
 C    2.127713971070    1.486202690570    0.589435006098
 C    0.078713971070    2.220202690570   -0.772564993902
 H    1.095713971070    0.334202690569   -0.869564993902
 H    0.176713971070    0.588202690570    0.604435006098
 H    1.894713971070    2.265202690570    1.319435006098
 H   -0.241286028930    2.943202690570   -0.021564993902
 H    0.734713971070    2.709202690570   -1.494564993902
 H    2.865643971070    1.867292690570   -0.131834993902
 H    2.547433971070    0.622962690570    1.126705006098
 H   -0.790816028930    1.794072690570   -1.294424993902
 C   -0.877286028930   -2.390797309430   -0.275564993902
 C   -2.109286028930   -2.314797309430    0.565435006098
 H   -0.795286028930   -3.367797309430   -0.752564993902
 H   -0.921286028930   -1.622797309430   -1.046564993902
 H    0.000713971070   -2.216797309430    0.348435006098
 H   -2.990286028930   -2.408797309430   -0.072564993902
 H   -2.121286028930   -1.314797309430    0.993435006098
 H   -2.140876028930   -3.086527309430    1.348655006098
