15
-1 1 
 C   -0.214646560883    2.254614873340    0.173902903537
 C    0.777353439117    1.181614873340   -0.157097096463
 O    0.807353439117    0.761614873340   -1.338097096463
 O    1.392353439117    0.684614873340    0.791902903537
 H   -1.035646560883    1.815614873340    0.748902903537
 H   -0.658646560883    2.591614873340   -0.764097096463
 H    0.195853439117    3.091408873340    0.758082903537
 C   -1.082646560883   -1.930385126660    0.813902903537
 C   -1.610646560883   -2.856385126660   -0.297097096463
 H   -1.220646560883   -0.887385126660    0.530902903537
 H   -1.590646560883   -2.121385126660    1.755902903537
 H   -0.023646560883   -2.105385126660    0.994902903537
 H   -1.543646560883   -3.887385126660    0.020902903537
 H   -1.006286560883   -2.760318126660   -1.211167096463
 H   -2.659106560883   -2.608841126660   -0.519457096463
