19
0 1 
 C   -1.242904584567   -1.690438405553    1.341613938398
 C   -2.479904584567   -1.101438405553    1.993613938398
 H   -0.720904584567   -0.923438405553    0.774613938398
 H   -0.574904584567   -2.089438405553    2.106613938398
 H   -1.531904584567   -2.503438405553    0.671613938398
 H   -2.978904584567   -1.880438405553    2.573613938398
 H   -3.169234584567   -0.708728405553    1.231642938398
 H   -2.218694984567   -0.265858405553    2.659625938398
 C    1.067095415433    0.607561594447   -0.734386061602
 C    0.192095415433    1.231561594447   -1.815386061602
 C    2.534095415433    0.998561594447   -0.832386061602
 H    0.687095415433    0.900561594447    0.246613938398
 H    0.996095415433   -0.477438405553   -0.825386061602
 H    0.631095415433    0.988561594447   -2.776386061602
 H    2.935095415433    0.662561594447   -1.789386061602
 H    2.629095415433    2.084561594447   -0.785386061602
 H    0.167191415433    2.327351594447   -1.722561061602
 H   -0.818024484567    0.797511594447   -1.779880061602
 H    3.127745415433    0.542241594447   -0.026562061602
