24
0 1 
 C   -1.448628149239   -1.195466410574   -2.446315346290
 C   -2.946628149239   -0.985466410574   -2.017315346290
 H   -1.132628149239   -2.212466410574   -2.214315346290
 H   -1.338628149239   -0.990466410574   -3.509315346290
 H   -0.817628149239   -0.494466410574   -1.898315346290
 H   -3.556628149239   -1.754466410574   -2.479315346290
 H   -3.090338149239   -1.019238410574   -0.927265346290
 H   -3.327658149239   -0.019692410574   -2.380765346290
 C   -1.446628149239    1.010533589426    2.578684653710
 C    1.000371850761   -1.026466410574    0.517684653710
 C    1.551371850761   -0.037466410574   -0.307315346290
 C    0.034371850761   -0.674466410574    1.429684653710
 C   -0.389628149239    0.659533589426    1.559684653710
 C    1.194371850761    1.308533589426   -0.169315346290
 C    0.205371850761    1.649533589426    0.771684653710
 O    2.511371850761   -0.428466410574   -1.183315346290
 H    1.336371850761   -2.050466410574    0.430684653710
 H   -0.346628149239   -1.419466410574    2.095684653710
 H    1.667371850761    2.070533589426   -0.771315346290
 H    2.824371850761    0.306533589426   -1.721315346290
 H   -2.080628149239    0.131533589426    2.698684653710
 H   -2.083628149239    1.796533589426    2.169684653710
 H   -0.088628149239    2.684533589426    0.893684653710
 H   -1.083778149239    1.331546589426    3.566254653710
