24
0 1 
 C    1.146212860300   -2.011402958170    2.756951121959
 C    1.601212860300   -3.323402958170    3.380951121959
 H    0.168212860300   -1.719402958170    3.136951121959
 H    1.878212860300   -1.266402958170    3.045951121959
 H    1.125212860300   -2.078402958170    1.671951121959
 H    2.527212860300   -3.644402958170    2.901951121959
 H    0.825339860300   -4.091373958170    3.245892121959
 H    1.782902860300   -3.177044958170    4.455921121959
 C   -0.413787139700   -1.670402958170   -2.538048878041
 C   -0.619787139700   -0.528402958170   -0.289048878041
 C   -0.434787139700   -0.429402958170   -1.673048878041
 C   -0.581787139700    0.610597041830    0.522951121959
 C   -0.218787139700    0.831597041830   -2.234048878041
 C   -0.355787139700    1.861597041830   -0.051048878041
 C   -0.179787139700    1.977597041830   -1.432048878041
 O   -0.284787139700    2.972597041830    0.727951121959
 H   -0.789787139700   -1.498402958170    0.160951121959
 H   -0.716787139700    0.530597041830    1.590951121959
 H   -1.027787139700   -1.488402958170   -3.419048878041
 H   -0.855787139700   -2.494402958170   -1.978048878041
 H   -0.074787139700    0.920597041830   -3.300048878041
 H   -0.016787139700    2.943597041830   -1.886048878041
 H   -0.221787139700    3.777597041830    0.214951121959
 H    0.595886860300   -1.961751958170   -2.863124878041
