20
0 1 
 C   -3.903631117943    0.128505102293   -0.279958683458
 C   -1.700631117943    1.055505102293    0.330041316542
 N   -1.125631117943   -0.099494897707    0.052041316542
 N   -3.009631117943    1.199505102293    0.176041316542
 N   -0.964631117943    2.059505102293    0.762041316542
 H   -1.677631117943   -0.881494897707   -0.243958683458
 H   -0.103631117943   -0.159494897707   -0.045958683458
 H   -3.406631117943    2.079505102293    0.448041316542
 H   -1.367631117943    2.966505102293    0.988041316542
 H    0.018368882057    1.913505102293    0.905041316542
 H   -3.851631117943   -0.687494897707    0.446041316542
 H   -3.573631117943   -0.265494897707   -1.241958683458
 H   -4.955288117943    0.447255102293   -0.329108683458
 C    3.653368882057   -1.475494897707   -1.242958683458
 C    2.620368882057   -1.062494897707   -0.203958683458
 O    1.606368882057   -0.436494897707   -0.581958683458
 O    2.810368882057   -1.362494897707    0.994041316542
 H    3.632368882057   -0.748494897707   -2.056958683458
 H    3.396368882057   -2.430494897707   -1.684958683458
 H    4.680508882057   -1.460336797707   -0.849570683458
