16
0 1 
 C   -1.030050807486   -1.267658873016   -0.860514995534
 C   -1.846050807486   -1.690658873016   -2.071514995534
 H   -1.550050807486   -1.537658873016    0.057485004466
 H   -0.059050807486   -1.757658873016   -0.883514995534
 H   -0.873050807486   -0.190658873016   -0.884514995534
 H   -1.263050807486   -1.426658873016   -2.952514995534
 H   -2.812560807486   -1.165428873016   -2.070794995534
 H   -2.012720807486   -2.777958873016   -2.070794995534
 C    0.849949192514    1.054341126984    1.228485004466
 C    2.022949192514    1.902341126984    1.708485004466
 H   -0.047050807486    1.274341126984    1.806485004466
 H    0.652949192514    1.279341126984    0.184485004466
 H    1.086949192514   -0.005658873016    1.294485004466
 H    2.940949192514    1.546341126984    1.242485004466
 H    2.104829192514    1.829801126984    2.803035004466
 H    1.869999192514    2.951331126984    1.414855004466
