23
-1 1 
 C    3.142867107614   -1.846780075097    1.915765267993
 C    3.295867107614   -1.272780075097    0.541765267993
 O    2.298867107614   -0.906780075097   -0.118234732007
 O    4.474867107614   -1.153780075097    0.133765267993
 H    2.980867107614   -1.013780075097    2.603765267993
 H    4.054867107614   -2.361780075097    2.224765267993
 H    2.294417107614   -2.543000075097    1.989355267993
 C   -3.593132892386    3.021219924903   -0.415234732007
 C   -0.953132892386   -0.368780075097   -0.310234732007
 C   -2.231132892386   -0.494780075097   -0.844234732007
 C   -0.537132892386    0.857219924903    0.215765267993
 C   -3.072132892386    0.601219924903   -0.861234732007
 C   -1.387132892386    1.941219924903    0.183765267993
 C   -2.667132892386    1.836219924903   -0.348234732007
 O   -0.137132892386   -1.438780075097   -0.297234732007
 H   -2.569132892386   -1.445780075097   -1.226234732007
 H   -0.538132892386   -2.203780075097   -0.705234732007
 H    0.459867107614    0.947219924903    0.619765267993
 H   -4.077132892386    0.486219924903   -1.233234732007
 H   -1.044132892386    2.877219924903    0.562765267993
 H   -3.740132892386    3.456219924903    0.557765267993
 H   -4.565132892386    2.642219924903   -0.721234732007
 H   -3.303122892386    3.806549924903   -1.128784732007
