33
0 1 
 C   -0.693891371362    1.788675225751    0.646872386115
 C   -0.758891371362    2.752675225751    1.817872386115
 C    0.716108628638    1.473675225751    0.220872386115
 C    1.231108628638    2.080675225751   -0.897127613885
 C    1.540108628638    0.631675225751    0.968872386115
 C    2.504108628638    1.799675225751   -1.352127613885
 C    2.844108628638    0.362675225751    0.534872386115
 C    3.314108628638    0.950675225751   -0.634127613885
 H   -1.194891371362    0.858675225751    0.918872386115
 H   -1.238891371362    2.216675225751   -0.196127613885
 H   -0.165891371362    3.614675225751    1.535872386115
 H    0.616108628638    2.767675225751   -1.462127613885
 H    1.165108628638    0.150675225751    1.860872386115
 H    2.876108628638    2.266675225751   -2.253127613885
 H    3.475108628638   -0.309324774249    1.096872386115
 H    4.316108628638    0.738675225751   -0.981127613885
 H   -0.332241371362    2.299552225751    2.724874386115
 H   -1.787391371362    3.080485225751    2.029386386115
 C   -2.972891371362   -2.607324774249    1.570872386115
 C   -2.553891371362   -1.286324774249   -0.571127613885
 C   -2.036891371362   -2.060324774249    0.480872386115
 C   -1.722891371362   -0.793324774249   -1.621127613885
 C   -0.655891371362   -2.353324774249    0.475872386115
 C   -0.381891371362   -1.089324774249   -1.608127613885
 C    0.164108628638   -1.850324774249   -0.544127613885
 H   -3.602891371362   -1.047324774249   -0.581127613885
 H   -2.145891371362   -0.194324774249   -2.415127613885
 H   -2.601891371362   -3.592324774249    1.845872386115
 H   -3.962891371362   -2.750324774249    1.136872386115
 H   -0.218891371362   -2.940324774249    1.270872386115
 H    0.267108628638   -0.732324774249   -2.393127613885
 H    1.225108628638   -2.059324774249   -0.529127613885
 H   -3.078551371362   -1.988328774249    2.474021386115
