35
0 1 
 C   -3.509855660770   -1.659361099757   -2.674806840983
 C   -0.634855660770   -2.380361099757   -0.445806840983
 C   -1.160855660770   -1.820361099757   -1.634806840983
 C   -2.560855660770   -2.090361099757   -1.649806840983
 C   -2.839855660770   -2.785361099757   -0.528806840983
 C    0.716144339230   -2.288361099757   -0.122806840983
 C    1.548144339230   -1.601361099757   -0.989806840983
 C    1.060144339230   -1.043361099757   -2.173806840983
 C   -0.292855660770   -1.145361099757   -2.498806840983
 N   -1.684855660770   -2.972361099757    0.205193159017
 H    1.098144339230   -2.726361099757    0.788193159017
 H    2.596144339230   -1.504361099757   -0.762806840983
 H   -1.641855660770   -3.465361099757    1.090193159017
 H    1.736144339230   -0.524361099757   -2.840806840983
 H   -3.827855660770   -3.135361099757   -0.243806840983
 H   -0.666855660770   -0.717361099757   -3.416806840983
 H   -4.325855660770   -2.383361099757   -2.722806840983
 H   -3.005855660770   -1.662361099757   -3.641806840983
 H   -3.930705660770   -0.660911099757   -2.485136840983
 C    1.274144339230    4.649638900243   -0.375806840983
 C    0.476144339230    1.265638900243    1.178193159017
 C    1.138144339230    1.346638900243    2.394193159017
 C    0.520144339230    2.326638900243    0.278193159017
 C    1.212144339230    3.503638900243    0.592193159017
 C    1.827144339230    2.510638900243    2.717193159017
 C    1.867144339230    3.578638900243    1.819193159017
 O    1.110144339230    0.308638900243    3.285193159017
 H   -0.069855660770    0.366638900243    0.929193159017
 H   -0.008855660770    2.241638900243   -0.661806840983
 H    2.332144339230    2.592638900243    3.669193159017
 H    1.577144339230    0.516638900243    4.103193159017
 H    0.921144339230    4.326638900243   -1.356806840983
 H    2.311144339230    4.959638900243   -0.485806840983
 H    2.392144339230    4.482638900243    2.084193159017
 H    0.680664339230    5.507918900243   -0.027756840983
