17
0 1 
 C    1.026544699081   -1.911017925872    0.711154232568
 C    0.559544699081   -3.232017925872    1.302154232568
 H    1.885544699081   -2.074017925872    0.057154232568
 H    0.221544699081   -1.448017925872    0.142154232568
 H    1.290544699081   -1.201017925872    1.498154232568
 H   -0.282455300919   -3.030017925872    1.966154232568
 H    1.351444699081   -3.727937925872    1.882644232568
 H    0.215104699081   -3.888097925872    0.489184232568
 C   -1.730455300919    1.092982074128   -1.038845767432
 C   -0.360455300919    1.362982074128   -0.456845767432
 O   -0.248455300919    1.745982074128    0.719154232568
 N    0.684544699081    1.090982074128   -1.230845767432
 H   -2.209455300919    0.353982074128   -0.394845767432
 H   -1.617455300919    0.649982074128   -2.025845767432
 H    1.409544699081    0.577982074128   -0.767845767432
 H    0.541544699081    0.921982074128   -2.229845767432
 H   -2.363225300919    1.991192074128   -1.091935767432
