26
0 1 
 C    1.148262530739   -1.045575737849   -0.947409396533
 C    1.776262530739   -2.431575737849   -0.844409396533
 C    0.298262530739   -0.683575737849    0.240590603467
 C    0.873262530739   -0.246575737849    1.429590603467
 C   -1.073737469261   -0.808575737849    0.167590603467
 C    0.082262530739    0.035424262151    2.543590603467
 C   -1.866737469261   -0.486575737849    1.250590603467
 C   -1.285737469261   -0.085575737849    2.460590603467
 H    1.937262530739   -0.299575737849   -1.047409396533
 H    0.544262530739   -0.999575737849   -1.852409396533
 H    0.977262530739   -3.155575737849   -0.738409396533
 H    1.943262530739   -0.147575737849    1.511590603467
 H   -1.537737469261   -1.154575737849   -0.745409396533
 H    0.545262530739    0.344424262151    3.470590603467
 H   -2.937737469261   -0.592575737849    1.178590603467
 H   -1.907737469261    0.121424262151    3.319590603467
 H    2.457302530739   -2.489085737849    0.017490603467
 H    2.368742530739   -2.657384737849   -1.743288396533
 C    0.321262530739    2.261424262151   -2.159409396533
 C   -0.576737469261    3.071424262151   -3.103409396533
 H    0.981262530739    1.625424262151   -2.736409396533
 H    0.918262530739    2.941424262151   -1.551409396533
 H   -0.294737469261    1.647424262151   -1.503409396533
 H   -1.164737469261    3.758424262151   -2.495409396533
 H   -1.246789469261    2.385538262151   -3.642474396533
 H    0.028824530739    3.669820262151   -3.799984396533
