23
0 1 
 C   -1.654874448517    1.651891004728    2.161419561200
 C    0.531125551483   -0.307108995272   -0.261580438800
 C   -0.581874448517    0.330891004728    0.328419561200
 C    1.775125551483   -0.262108995272    0.362419561200
 C   -0.451874448517    0.995891004728    1.526419561200
 C    1.909125551483    0.394891004728    1.570419561200
 C    0.792125551483    1.025891004728    2.154419561200
 H    0.416125551483   -0.867108995272   -1.171580438800
 H   -1.548874448517    0.278891004728   -0.149580438800
 H    2.625125551483   -0.764108995272   -0.081580438800
 H    2.855125551483    0.374891004728    2.080419561200
 H   -2.179874448517    2.229891004728    1.400419561200
 H   -1.311874448517    2.352891004728    2.922419561200
 H    0.905125551483    1.530891004728    3.102419561200
 H   -2.354324448517    0.933049004728    2.613119561200
 C   -0.216874448517   -1.580108995272   -3.768580438800
 C   -1.598874448517   -1.891108995272   -3.213580438800
 H   -0.288874448517   -1.300108995272   -4.819580438800
 H    0.239125551483   -0.742108995272   -3.248580438800
 H    0.439125551483   -2.444108995272   -3.664580438800
 H   -1.485874448517   -2.406108995272   -2.259580438800
 H   -2.176374448517   -2.512425295272   -3.913910438800
 H   -2.124364448517   -0.939202995272   -3.047030438800
