28
1 1 
 C   -1.377121674990    0.908572475179   -0.302594724313
 C   -2.461121674990    1.682572475179   -1.024594724313
 C   -2.729121674990    0.804572475179    2.105405275687
 S   -1.178121674990    1.396572475179    1.423405275687
 H   -1.611121674990   -0.153427524821   -0.355594724313
 H   -0.425121674990    1.069572475179   -0.803594724313
 H   -2.446121674990    2.716572475179   -0.684594724313
 H   -3.427121674990    1.250572475179   -0.762594724313
 H   -2.821121674990   -0.266427524821    1.957405275687
 H   -2.719121674990    1.036572475179    3.161405275687
 H   -3.574121674990    1.299572475179    1.629405275687
 H   -2.334241674990    1.661782475179   -2.117054724313
 C    2.051878325010   -0.348427524821    0.644405275687
 C    3.183878325010   -1.083427524821    1.392405275687
 C    1.010878325010   -1.231427524821   -1.448594724313
 N    1.125878325010   -1.207427524821   -0.125594724313
 N    1.821878325010   -0.529427524821   -2.212594724313
 N    0.079878325010   -1.974427524821   -2.017594724313
 H    1.453878325010    0.170572475179    1.396405275687
 H    2.491878325010    0.420572475179    0.008405275687
 H    3.762878325010   -1.679427524821    0.685405275687
 H    2.739878325010   -1.752427524821    2.131405275687
 H    0.421878325010   -1.748427524821    0.376405275687
 H    2.590878325010   -0.027427524821   -1.804594724313
 H    1.760878325010   -0.602427524821   -3.216594724313
 H   -0.566121674990   -2.448427524821   -1.385594724313
 H   -0.022121674990   -2.039427524821   -3.016594724313
 H    3.850578325010   -0.367687524821    1.895625275687
