26
0 1 
 C    1.721089779929    1.911203404886   -2.058859014436
 C    3.049089779929    1.253203404886   -1.683859014436
 C    1.795089779929    2.998203404886   -3.123859014436
 H    1.034089779929    1.134203404886   -2.396859014436
 H    1.297089779929    2.350203404886   -1.153859014436
 H    3.780089779929    2.029203404886   -1.467859014436
 H    2.228089779929    2.603203404886   -4.039859014436
 H    3.429919779929    0.635967404886   -2.510899014436
 H    2.950079779929    0.677907404886   -0.751529014436
 H    0.767779779929    3.332946404886   -3.330189014436
 H    2.416399779929    3.843476404886   -2.792979014436
 C   -1.959910220071   -3.263796595114    1.058140985564
 C   -1.001910220071    0.253203404886   -0.001859014436
 C   -0.379910220071    0.742203404886    1.118140985564
 C   -1.518910220071   -1.032796595114   -0.010859014436
 C   -1.403910220071   -1.859796595114    1.090140985564
 C   -0.249910220071   -0.069796595114    2.228140985564
 C   -0.747910220071   -1.370796595114    2.213140985564
 H   -1.095910220071    0.875203404886   -0.881859014436
 H    0.038089779929    1.738203404886    1.123140985564
 H   -1.993910220071   -1.397796595114   -0.907859014436
 H    0.300089779929    0.278203404886    3.088140985564
 H   -1.167910220071   -3.961796595114    1.331140985564
 H   -2.261910220071   -3.492796595114    0.036140985564
 H   -0.593910220071   -2.002796595114    3.075140985564
 H   -2.827890220071   -3.416842695114    1.716310985564
