19
0 1 
 C    2.134422537378   -0.446274218173    1.087219028751
 C    3.134422537378    0.588725781827    1.576219028751
 H    2.000422537378   -1.235274218173    1.828219028751
 H    1.169422537378    0.034725781827    0.926219028751
 H    2.477422537378   -0.883274218173    0.149219028751
 H    2.741422537378    1.040725781827    2.486219028751
 H    4.111772537378    0.132625781827    1.792454028751
 H    3.236952537378    1.373555781827    0.812327028751
 C   -1.271577462622   -0.130274218173   -0.709780971249
 C   -1.824577462622   -0.853274218173   -1.947780971249
 C   -2.258577462622    0.825725781827   -0.056780971249
 H   -0.963577462622   -0.870274218173    0.031219028751
 H   -0.388577462622    0.441725781827   -0.982780971249
 H   -2.200577462622   -0.107274218173   -2.646780971249
 H   -3.033577462622    0.274725781827    0.475219028751
 H   -1.730577462622    1.458725781827    0.655219028751
 H   -2.717577462622    1.460725781827   -0.813780971249
 H   -1.017747462622   -1.425604218173   -2.428884971249
 H   -2.662557462622   -1.512814218173   -1.677970971249
