35
0 1 
 C   -1.471608159994    0.470475713474   -2.051240666012
 C   -2.731608159994   -0.147524286526   -2.700240666012
 C   -1.693608159994    1.216475713474   -0.774240666012
 C   -2.359608159994    2.445475713474   -0.783240666012
 C   -1.202608159994    0.723475713474    0.428759333988
 C   -2.566608159994    3.141475713474    0.393759333988
 C   -1.411608159994    1.404475713474    1.602759333988
 C   -2.078608159994    2.632475713474    1.589759333988
 O   -2.279608159994    3.294475713474    2.751759333988
 H   -0.761608159994   -0.328524286526   -1.856240666012
 H   -1.000608159994    1.141475713474   -2.770240666012
 H   -3.256608159994    0.641475713474   -3.240240666012
 H   -2.735608159994    2.846475713474   -1.716240666012
 H   -0.652608159994   -0.205524286526    0.441759333988
 H   -3.096608159994    4.084475713474    0.379759333988
 H   -1.041608159994    1.007475713474    2.537759333988
 H   -2.760608159994    4.120475713474    2.614759333988
 H   -3.421378159994   -0.620764286526   -1.985915666012
 H   -2.397824159994   -0.899804286526   -3.430076666012
 C   -0.038608159994   -3.589524286526    0.592759333988
 C    1.209391840006   -2.073524286526   -0.971240666012
 C    1.129391840006   -2.721524286526    0.266759333988
 C    2.302391840006   -1.270524286526   -1.292240666012
 C    2.179391840006   -2.582524286526    1.163759333988
 C    3.322391840006   -1.134524286526   -0.385240666012
 C    3.278391840006   -1.775524286526    0.847759333988
 O    4.386391840006   -0.358524286526   -0.730240666012
 H    0.420391840006   -2.206524286526   -1.699240666012
 H    2.357391840006   -0.770524286526   -2.248240666012
 H    0.301391840006   -4.603524286526    0.792759333988
 H   -0.663608159994   -3.642524286526   -0.297240666012
 H    2.169391840006   -3.109524286526    2.104759333988
 H    4.094391840006   -1.671524286526    1.547759333988
 H    5.048391840006   -0.328524286526   -0.030240666012
 H   -0.640138159994   -3.223694286526    1.437939333988
