20
0 1 
 C    0.530974432836    0.593181408369   -0.964372030157
 C    1.014974432836    1.000181408369   -2.377372030157
 C    1.600974432836    0.928181408369    0.098627969843
 O   -0.695025567164    1.305181408369   -0.681372030157
 H    0.331974432836   -0.478818591631   -0.942372030157
 H    1.109974432836    2.087181408369   -2.401372030157
 H    1.915974432836    1.966181408369   -0.026372030157
 H    1.174974432836    0.789181408369    1.093627969843
 H    2.458974432836    0.261181408369   -0.002372030157
 H   -1.121025567164    0.895181408369    0.082627969843
 H    0.302596432836    0.644741408369   -3.136442030157
 H    1.989663432836    0.534181408369   -2.584322030157
 C   -1.507025567164   -1.268818591631    1.733627969843
 C   -0.818025567164   -2.583818591631    2.117627969843
 H   -2.055025567164   -0.872818591631    2.589627969843
 H   -0.750025567164   -0.537818591631    1.465627969843
 H   -2.196025567164   -1.423818591631    0.900627969843
 H   -0.115025567164   -2.415818591631    2.922627969843
 H   -1.528950567164   -3.380138591631    2.383067969843
 H   -0.273384567164   -2.933678591631    1.228267969843
