28
0 1 
 C    1.658770617355    0.702313638482   -1.929652344115
 C    2.672770617355   -0.223686361518   -2.622652344115
 C    0.670770617355    1.316313638482   -2.895652344115
 O    0.515770617355    0.869313638482   -4.030652344115
 N   -0.023229382645    2.349313638482   -2.448652344115
 H    1.109770617355    0.181313638482   -1.150652344115
 H    2.162770617355    1.543313638482   -1.456652344115
 H    2.902770617355    0.193313638482   -3.606652344115
 H   -0.692229382645    2.786313638482   -3.065652344115
 H    0.131770617355    2.705313638482   -1.516652344115
 H    2.253680617355   -1.229044361518   -2.776352344115
 H    3.637630617355   -0.222243361518   -2.094352344115
 C    1.779770617355   -0.342686361518    3.345347655885
 C    0.143770617355    0.339313638482    1.560347655885
 C    0.474770617355   -0.509686361518    2.618347655885
 C   -1.045229382645    0.164313638482    0.852347655885
 C   -1.911229382645   -0.869686361518    1.202347655885
 C   -0.400229382645   -1.541686361518    2.961347655885
 C   -1.589229382645   -1.729686361518    2.254347655885
 O   -3.075229382645   -1.028686361518    0.511347655885
 H    0.816770617355    1.142313638482    1.287347655885
 H   -1.296229382645    0.832313638482    0.040347655885
 H    1.750770617355   -0.901686361518    4.281347655885
 H    1.898770617355    0.714313638482    3.589347655885
 H   -0.152229382645   -2.205686361518    3.779347655885
 H   -3.182229382645   -0.358686361518   -0.173652344115
 H   -2.266229382645   -2.529686361518    2.519347655885
 H    2.639900617355   -0.677022361518    2.746647655885
