16
-1 1 
 C    2.634654108811    1.991906713140    0.276864065013
 C    2.417654108811    0.550906713140   -0.080135934987
 O    3.385654108811   -0.146093286860    0.039864065013
 N    1.193654108811    0.233906713140   -0.472135934987
 H    0.991654108811   -0.636093286860   -0.907135934987
 H    0.433654108811    0.892906713140   -0.439135934987
 H    1.957654108811    2.248906713140    1.094864065013
 H    2.378654108811    2.609906713140   -0.586135934987
 H    3.674544108811    2.175586713140    0.584900865013
 C   -2.350345891189   -0.415093286860    1.505864065013
 C   -2.393345891189   -0.679093286860   -0.012135934987
 O   -1.564345891189   -0.082093286860   -0.738135934987
 O   -3.249345891189   -1.461093286860   -0.497135934987
 H   -3.068345891189    0.374906713140    1.740864065013
 H   -1.361345891189   -0.058093286860    1.801864065013
 H   -2.602165891189   -1.296463286860    2.113953065013
