18
0 1 
 C    3.900354157261   -1.217853166708    0.318170288666
 O    2.696354157261   -1.156853166708   -0.426829711334
 H    2.822354157261   -1.655853166708   -1.248829711334
 H    4.261354157261   -2.246853166708    0.327170288666
 H    3.617354157261   -0.976853166708    1.343170288666
 H    4.733714157261   -0.556964166708    0.037560288666
 C   -3.260645842739    1.086146833292    0.754170288666
 C   -0.146645842739    0.519146833292   -0.980829711334
 C   -1.065645842739   -0.219853166708    0.862170288666
 C   -1.913645842739    0.665146833292    0.297170288666
 N    0.037354157261   -0.299853166708    0.046170288666
 N   -1.335645842739    1.101146833292   -0.866829711334
 H    0.885354157261   -0.840853166708    0.199170288666
 H    0.559354157261    0.681146833292   -1.786829711334
 H   -1.239645842739   -0.760853166708    1.780170288666
 H   -3.703645842739    1.742146833292    0.005170288666
 H   -3.134645842739    1.670146833292    1.666170288666
 H   -3.952619842739    0.256210833292    0.960030288666
