23
0 1 
 C    0.791290679915   -2.402139309290   -0.137445020439
 C    0.018290679915   -1.269139309290    0.453554979561
 C   -1.369709320085   -1.172139309290    0.338554979561
 C    0.743290679915   -0.299139309290    1.152554979561
 C   -2.060709320085   -0.088139309290    0.938554979561
 C    0.101290679915    0.775860690710    1.749554979561
 C   -1.284709320085    0.897860690710    1.620554979561
 H    1.632290679915   -2.619139309290    0.522554979561
 H    1.186290679915   -2.076139309290   -1.100445020439
 H   -1.944709320085   -1.914139309290   -0.193445020439
 H    1.811290679915   -0.387139309290    1.258554979561
 H   -3.136709320085   -0.003139309290    0.881554979561
 H    0.667290679915    1.515860690710    2.299554979561
 H   -1.782709320085    1.733860690710    2.087554979561
 H    0.222430679915   -3.332689309290   -0.280551020439
 C    1.315290679915    1.162860690710   -2.066445020439
 C    1.218290679915    2.159860690710   -3.191445020439
 H    0.379290679915    0.609860690710   -1.979445020439
 H    2.120290679915    0.454860690710   -2.261445020439
 H    1.511290679915    1.671860690710   -1.120445020439
 H    1.047290679915    1.629860690710   -4.125445020439
 H    0.375780679915    2.831870690710   -2.971010020439
 H    2.190060679915    2.673570690710   -3.233541020439
