19
0 1 
 C    0.297030237032   -1.384423450961   -0.009241136594
 C    0.324030237032   -2.837423450961   -0.374241136594
 C    1.177030237032   -0.682423450961   -1.016241136594
 H    0.615030237032   -1.196423450961    1.009758863406
 H   -0.716969762968   -1.028423450961   -0.154241136594
 H    1.163030237032   -3.334423450961    0.115758863406
 H   -0.614969762968   -3.304423450961   -0.088241136594
 H    2.175030237032   -0.561423450961   -0.590241136594
 H    0.767030237032    0.295576549039   -1.268241136594
 H    0.490698237032   -2.816403450961   -1.461338136594
 H    1.206488237032   -1.334803450961   -1.901413136594
 C   -0.962969762968    1.672576549039    0.904758863406
 C   -0.808969762968    3.135576549039    0.506758863406
 H   -0.057969762968    1.305576549039    1.391758863406
 H   -1.809969762968    1.562576549039    1.576758863406
 H   -1.167969762968    1.097576549039    0.004758863406
 H   -1.712969762968    3.399576549039   -0.041241136594
 H    0.081832237032    3.272856549039   -0.123817136594
 H   -0.729698762968    3.787036549039    1.389546863406
