17
0 1 
 C    1.451644179163   -0.883642042923    1.282118594185
 C    2.167644179163   -2.202642042923    1.065118594185
 H    0.376644179163   -1.037642042923    1.246118594185
 H    1.690644179163   -0.494642042923    2.271118594185
 H    1.769644179163   -0.156642042923    0.537118594185
 H    1.768644179163   -2.917642042923    1.785118594185
 H    1.999057179163   -2.585729042923    0.047856594185
 H    3.241515179163   -2.072833042923    1.264994594185
 C   -0.641355820837    0.882357957077   -0.836881405815
 C   -1.331355820837    1.990357957077   -1.536881405815
 O   -1.495355820837    0.160357957077   -0.005881405815
 H   -0.680355820837    0.560357957077   -1.857881405815
 H    0.322644179163    1.179357957077   -0.423881405815
 H   -0.690355820837    2.377357957077   -2.327881405815
 H   -1.922355820837    0.697357957077    0.698118594185
 H   -1.490026820837    2.806597957077   -0.816759405815
 H   -2.258823820837    1.642022957077   -2.014862305815
