25
0 1 
 C   -4.933311192774   -0.692209992955   -1.298385586458
 C   -3.662311192774   -0.428209992955   -0.505385586458
 O   -2.674311192774   -1.159209992955   -0.562385586458
 N   -3.721311192774    0.584790007045    0.303614413542
 H   -5.753311192774   -0.078209992955   -0.921385586458
 H   -5.205311192774   -1.740209992955   -1.166385586458
 H   -2.895311192774    0.805790007045    0.839614413542
 H   -4.564311192774    1.128790007045    0.409614413542
 H   -4.766070192774   -0.476969992955   -2.364075586458
 C    4.172688807226    1.114790007045    2.128614413542
 C    1.043688807226   -0.202209992955   -0.577385586458
 C    2.377688807226   -0.116209992955   -1.073385586458
 C    0.763688807226    0.160790007045    0.740614413542
 C    3.403688807226    0.332790007045   -0.205385586458
 C    1.775688807226    0.607790007045    1.562614413542
 C    3.095688807226    0.691790007045    1.129614413542
 O   -0.015311192774   -0.665209992955   -1.301385586458
 H    0.244688807226   -0.937209992955   -2.201385586458
 H    2.603688807226   -0.417209992955   -2.085385586458
 H   -0.248311192774    0.087790007045    1.105614413542
 H    4.424688807226    0.386790007045   -0.560385586458
 H    1.533688807226    0.892790007045    2.576614413542
 H    3.726688807226    1.482790007045    3.054614413542
 H    4.746688807226    1.927790007045    1.680614413542
 H    4.846398807226    0.274430007045    2.352004413542
