22
0 1 
 C    0.301819097815    0.164064035003    1.253784217964
 C    1.791819097815    0.320064035003    1.489784217964
 C   -0.093180902185   -1.317935964997    1.350784217964
 C   -0.504180902185    1.004064035003    2.245784217964
 H    0.076819097815    0.518064035003    0.247784217964
 H    1.983819097815    0.006064035003    2.511784217964
 H    0.167819097815   -1.713935964997    2.334784217964
 H   -1.164180902185   -1.439935964997    1.192784217964
 H    0.385819097815   -1.916935964997    0.575784217964
 H   -0.345180902185    0.661064035003    3.269784217964
 H   -0.173180902185    2.031064035003    2.144784217964
 H    2.116359097815    1.363724035003    1.365534217964
 H    2.336269097815   -0.339655964997    0.798164217964
 H   -1.577630902185    1.011994035003    2.005714217964
 C   -0.746180902185   -0.334935964997   -2.373215782036
 C   -0.700180902185    0.190064035003   -3.794215782036
 H   -1.210180902185    0.404064035003   -1.718215782036
 H   -1.338180902185   -1.250935964997   -2.340215782036
 H    0.254819097815   -0.569935964997   -2.020215782036
 H   -0.133180902185   -0.504935964997   -4.413215782036
 H   -0.241700902185    1.188804035003   -3.842285782036
 H   -1.732630902185    0.249184035003   -4.169125782036
