24
0 1 
 C    2.839075104829   -0.478250740962   -1.278214047129
 C   -0.427924895171    0.164749259038    0.489785952871
 C   -0.109924895171    1.256749259038    1.282785952871
 C    0.533075104829   -0.403250740962   -0.323214047129
 C    1.794075104829    0.156749259038   -0.412214047129
 C    1.159075104829    1.808749259038    1.224785952871
 C    2.099075104829    1.264749259038    0.369785952871
 O   -1.064924895171    1.753749259038    2.112785952871
 H   -1.415924895171   -0.261250740962    0.548785952871
 H    0.299075104829   -1.281250740962   -0.908214047129
 H    1.411075104829    2.653749259038    1.846785952871
 H   -0.742924895171    2.508749259038    2.630785952871
 H    3.486075104829    0.305749259038   -1.662214047129
 H    2.347075104829   -0.949250740962   -2.131214047129
 H    3.089075104829    1.698749259038    0.320785952871
 H    3.450125104829   -1.228112740962   -0.754454047129
 C   -2.231924895171   -2.545250740962   -1.509214047129
 C   -3.733924895171   -2.568250740962   -1.813214047129
 H   -1.753924895171   -3.472250740962   -1.807214047129
 H   -1.764924895171   -1.722250740962   -2.044214047129
 H   -2.073924895171   -2.398250740962   -0.441214047129
 H   -4.129924895171   -1.569250740962   -1.641214047129
 H   -4.266824895171   -3.290758740962   -1.177604047129
 H   -3.902154895171   -2.833716740962   -2.867364047129
