26
0 1 
 C   -0.910568217865    1.179388213896    2.610384261713
 C   -0.141568217865   -0.280611786104    0.707384261713
 C    0.115431782135    0.296388213896    1.956384261713
 C    0.791431782135   -1.100611786104    0.107384261713
 C    1.309431782135    0.010388213896    2.591384261713
 C    1.965431782135   -1.400611786104    0.759384261713
 C    2.235431782135   -0.845611786104    1.994384261713
 H   -1.081568217865   -0.087611786104    0.210384261713
 H    0.582431782135   -1.545611786104   -0.854615738287
 H   -1.543568217865    1.639388213896    1.849384261713
 H   -0.379568217865    1.973388213896    3.123384261713
 H    1.523431782135    0.437388213896    3.561384261713
 H    2.663431782135   -2.096611786104    0.320384261713
 H    3.156431782135   -1.092611786104    2.505384261713
 H   -1.535278217865    0.647338213896    3.342954261713
 C   -1.418568217865    0.649388213896   -2.698615738287
 C   -1.356568217865   -0.702611786104   -3.409615738287
 C   -1.838568217865    1.815388213896   -3.595615738287
 H   -2.096568217865    0.601388213896   -1.847615738287
 H   -0.428568217865    0.864388213896   -2.296615738287
 H   -0.980568217865   -1.424611786104   -2.682615738287
 H   -2.814568217865    1.622388213896   -4.034615738287
 H   -1.905568217865    2.722388213896   -2.993615738287
 H   -1.104568217865    1.979388213896   -4.384615738287
 H   -2.348622217865   -1.041121786104   -3.743145738287
 H   -0.652525317865   -0.685171786104   -4.254615738287
