16
0 1 
 C    1.231127237470    1.139502454289   -0.482142376258
 C    2.052127237470    2.243502454289   -1.105142376258
 H    1.877127237470    0.323502454289   -0.151142376258
 H    0.671127237470    1.526502454289    0.370857623742
 H    0.526127237470    0.747502454289   -1.218142376258
 H    1.381127237470    3.011502454289   -1.486142376258
 H    2.660627237470    1.825672454288   -1.920702376258
 H    2.719357237470    2.685672454289   -0.350632376258
 C   -0.913872762530   -1.646497545711    1.051857623742
 C   -2.369872762530   -1.734497545711    0.531857623742
 H   -0.220872762530   -2.015497545712    0.292857623742
 H   -0.660872762530   -0.610497545711    1.274857623742
 H   -0.807872762530   -2.240497545712    1.960857623742
 H   -3.031872762530   -1.413497545712    1.329857623742
 H   -2.582322762530   -2.783697545712    0.278797623742
 H   -2.525832762530   -1.080597545712   -0.338822376258
