27
0 1 
 C   -1.356099286147   -1.095541343476    3.666568219942
 C   -0.633099286147   -0.770541343476   -0.053431780058
 C    0.125900713853   -1.871541343476   -0.282431780058
 C   -1.129099286147   -0.527541343476    1.216568219942
 C   -0.838099286147   -1.386541343476    2.273568219942
 C    0.399900713853   -2.754541343476    0.757568219942
 C   -0.079099286147   -2.515541343476    2.024568219942
 H   -0.873099286147   -0.106541343476   -0.866431780058
 H    0.511900713853   -2.064541343476   -1.273431780058
 H   -1.739099286147    0.346458656524    1.382568219942
 H    1.001900713853   -3.626541343476    0.566568219942
 H   -1.346099286147   -0.018541343476    3.833568219942
 H   -0.677099286147   -1.542541343476    4.392568219942
 H    0.147900713853   -3.207541343476    2.824568219942
 H   -2.368209286147   -1.486650343476    3.847302219942
 C   -0.084099286147    2.682458656524   -1.450431780058
 C   -1.152099286147    2.439458656524   -2.480431780058
 C    1.126900713853    1.784458656524   -1.651431780058
 O    1.100900713853    0.826458656524   -2.425431780058
 N    2.179900713853    2.066458656524   -0.909431780058
 H    0.235900713853    3.718458656524   -1.528431780058
 H   -0.481099286147    2.513458656524   -0.449431780058
 H   -1.498099286147    1.408458656524   -2.421431780058
 H   -0.717099286147    2.599458656524   -3.469431780058
 H    2.978900713853    1.449458656524   -0.902431780058
 H    2.172900713853    2.891458656524   -0.306431780058
 H   -2.019169286147    3.107928656524   -2.373937080058
