35
0 1 
 C   -0.245181464028    1.905552236001   -4.476196890058
 C    0.607818535972    1.864552236001   -2.019196890058
 C    0.048818535972    2.520552236001   -3.167196890058
 C    0.709818535972    2.841552236001   -0.994196890058
 C   -0.149181464028    3.817552236001   -2.815196890058
 C    1.563818535972    0.270552236001   -0.482196890058
 C    1.641818535972    1.261552236001    0.507803109942
 C    1.045818535972    0.557552236001   -1.751196890058
 C    1.216818535972    2.553552236001    0.259803109942
 N    0.245818535972    4.019552236001   -1.515196890058
 H    1.889818535972   -0.730447763999   -0.254196890058
 H    2.046818535972    1.014552236001    1.478803109942
 H    1.000818535972   -0.202447763999   -2.516196890058
 H    1.275818535972    3.317552236001    1.018803109942
 H   -1.034181464028    2.471552236001   -4.975196890058
 H   -0.628181464028    0.902552236001   -4.289196890058
 H   -0.558181464028    4.583552236001   -3.468196890058
 H    0.225818535972    4.915552236001   -1.040196890058
 H    0.633627635972    1.837008036001   -5.134216890058
 C    0.888818535972   -2.272447763999    4.416803109942
 C   -0.934181464028   -1.585447763999    1.133803109942
 C   -1.582181464028   -2.801447763999    0.916803109942
 C   -0.134181464028   -1.419447763999    2.270803109942
 C    0.044818535972   -2.464447763999    3.179803109942
 C   -1.414181464028   -3.850447763999    1.820803109942
 C   -0.615181464028   -3.672447763999    2.949803109942
 O   -2.374181464028   -2.979447763999   -0.179196890058
 H   -1.061181464028   -0.776447763999    0.428803109942
 H    0.359818535972   -0.472447763999    2.434803109942
 H   -1.885181464028   -4.803447763999    1.639803109942
 H   -2.805181464028   -3.840447763999   -0.181196890058
 H    0.382818535972   -2.774447763999    5.237803109942
 H    0.943818535972   -1.216447763999    4.663803109942
 H   -0.514181464028   -4.487447763999    3.652803109942
 H    1.913441835972   -2.667474763999    4.352763109942
