16
-1 1 
 C    2.736848397380    0.579199753163   -1.439119851379
 C    1.415848397380    0.744199753163   -0.702119851379
 O    0.859848397380   -0.272800246837   -0.237119851379
 O    0.930848397380    1.897199753163   -0.605119851379
 H    3.321848397380    1.501199753163   -1.390119851379
 H    2.492848397380    0.380199753163   -2.480119851379
 H    3.344886397380   -0.250920246837   -1.050289851379
 C   -1.897151602620   -1.520800246837    1.046880148621
 C   -2.163151602620   -0.474800246837    2.127880148621
 O   -1.736151602620   -0.874800246837   -0.202119851379
 H   -0.985151602620   -2.072800246837    1.281880148621
 H   -2.737151602620   -2.216800246837    0.997880148621
 H   -1.337151602620    0.235199753163    2.109880148621
 H   -0.786151602620   -0.600800246837   -0.219119851379
 H   -2.197262602620   -0.953110246837    3.117860148621
 H   -3.082500602620    0.084929753163    1.900940148621
