16
-1 1 
 C    1.317010999100    1.042865302474    2.412084573144
 C    0.887010999100    0.163865302474    1.262084573144
 O    0.017010999100   -0.718134697526    1.447084573144
 O    1.446010999100    0.356865302474    0.164084573144
 H    1.639010999100    2.019865302474    2.043084573144
 H    2.174010999100    0.566865302474    2.892084573144
 H    0.520370999100    1.183831302474    3.157394573144
 C   -1.469989000900    0.192865302474   -1.567915426856
 C   -2.099989000900   -1.191134697526   -1.704915426856
 O   -0.082989000900    0.150865302474   -1.850915426856
 H   -1.975989000900    0.853865302474   -2.269915426856
 H   -1.624989000900    0.570865302474   -0.556915426856
 H   -3.178989000900   -1.082134697526   -1.637915426856
 H    0.428010999100    0.227865302474   -1.002915426856
 H   -1.759519000900   -1.868300697526   -0.907715426856
 H   -1.859839000900   -1.615568697526   -2.690905426856
