24
0 1 
 C   -1.240036077935   -2.327330493089    2.056981777421
 C   -2.742036077935   -2.350330493089    1.752981777421
 H   -0.762036077935   -3.254330493089    1.758981777421
 H   -0.773036077935   -1.504330493089    1.521981777421
 H   -1.082036077935   -2.180330493089    3.124981777421
 H   -3.138036077935   -1.351330493089    1.924981777421
 H   -3.274936077935   -3.072838493089    2.388591777421
 H   -2.910266077935   -2.615796493089    0.698831777421
 C    2.508963922065    2.682669506911    0.307981777421
 C   -0.770036077935    0.769669506911   -0.121018222579
 C   -0.369036077935   -0.298330493089   -0.906018222579
 C    0.177963922065    1.730669506911    0.276981777421
 C    1.518963922065    1.605669506911   -0.086018222579
 C    0.962963922065   -0.407330493089   -1.321018222579
 C    1.901963922065    0.548669506911   -0.915018222579
 O   -1.312036077935   -1.201330493089   -1.317018222579
 H   -1.803036077935    0.859669506911    0.178981777421
 H   -0.137036077935    2.569669506911    0.875981777421
 H    1.266963922065   -1.225330493089   -1.958018222579
 H   -1.001036077935   -1.710330493089   -2.095018222579
 H    3.402963922065    2.202669506911    0.703981777421
 H    2.087963922065    3.302669506911    1.099981777421
 H    2.929963922065    0.457669506911   -1.237018222579
 H    2.802113922065    3.322009506911   -0.537778222579
