24
0 1 
 C   -2.199775461383   -2.191279308389   -0.134268269973
 C   -0.086775461383   -0.968279308389   -0.852268269973
 C   -1.391775461383   -1.388279308389   -1.113268269973
 C    0.616224538617   -0.219279308389   -1.798268269973
 C    0.032224538617    0.100720691611   -3.002268269973
 C   -1.961775461383   -1.060279308389   -2.335268269973
 C   -1.260775461383   -0.315279308389   -3.276268269973
 H    0.382224538617   -1.143279308389    0.086731730027
 H    1.622224538617    0.115720691611   -1.585268269973
 H   -2.584775461383   -3.066279308389   -0.646268269973
 H   -3.053775461383   -1.574279308389    0.148731730027
 H    0.579224538617    0.685720691611   -3.728268269973
 H   -2.965775461383   -1.389279308389   -2.563268269973
 H   -1.714775461383   -0.100279308389   -4.228268269973
 H   -1.686805461383   -2.501363308389    0.788071730027
 C    1.197224538617    0.549720691611    2.251731730027
 C    1.289224538617   -0.164279308389    3.614731730027
 S    1.433224538617    2.351720691611    2.298731730027
 H    1.923224538617    0.111720691611    1.564731730027
 H    0.207224538617    0.355720691611    1.843731730027
 H    0.922224538617   -1.182279308389    3.510731730027
 H    2.727224538617    2.306720691611    2.660731730027
 H    0.687120538617    0.348651691611    4.379171730027
 H    2.328710538617   -0.221665308389    3.969941730027
