18
-1 1 
 C   -0.368695276819    0.714273000304    1.620780980252
 C   -1.806695276819    0.330273000304    1.893780980252
 C    0.588304723181   -0.003726999696    2.570780980252
 H   -0.204695276819    0.447273000304    0.625780980252
 H   -0.244695276819    1.795273000304    1.713780980252
 H   -2.067695276819    0.704273000304    2.880780980252
 H   -1.900695276819   -0.756726999696    1.897780980252
 H    0.466304723181   -1.082726999696    2.434780980252
 H    1.617304723181    0.250273000304    2.295780980252
 H   -2.493755276819    0.742078000304    1.139880980252
 H    0.396764723181    0.264725000304    3.620180980252
 C   -0.158695276819   -1.528726999696   -1.868219019748
 C    0.431304723181   -0.174726999696   -1.503219019748
 O   -0.104695276819    0.860273000304   -1.966219019748
 O    1.429304723181   -0.159726999696   -0.748219019748
 H   -1.203695276819   -1.553726999696   -1.553219019748
 H    0.370304723181   -2.324726999696   -1.338219019748
 H   -0.106715276819   -1.714278999696   -2.951209019748
