19
0 1 
 C   -0.175034122534   -0.559485249499   -2.129647878399
 C    0.194965877466   -1.223485249499   -3.436647878399
 H   -0.181034122534    0.523514750501   -2.223647878399
 H   -1.171034122534   -0.884485249499   -1.827647878399
 H    0.528965877466   -0.847485249499   -1.351647878399
 H   -0.597034122534   -1.016485249499   -4.157647878399
 H    1.148045877466   -0.853395249499   -3.842455878399
 H    0.254155877466   -2.315175249499   -3.315348878399
 C   -0.186034122534    0.861514750501    1.459352121601
 C    1.300965877466    0.855514750501    1.803352121601
 C   -1.136034122534    0.119514750501    2.404352121601
 H   -0.497034122534    1.905514750501    1.409352121601
 H   -0.311034122534    0.457514750501    0.456352121601
 H    1.843965877466    1.302514750501    0.972352121601
 H   -0.628034122534   -0.047485249499    3.347352121601
 H    1.661685877466   -0.172095249499    1.957952121601
 H    1.456975877466    1.460844750501    2.708472121601
 H   -2.033728122534    0.714854750501    2.627332121601
 H   -1.460924122534   -0.866045249499    2.039492121601
