16
0 1 
 C    1.229768668815   -0.904936049924    0.680546733382
 C    1.742768668815   -0.443936049924    2.041546733382
 H    1.119768668815   -1.987936049924    0.650546733382
 H    0.250768668815   -0.463936049924    0.519546733382
 H    1.910768668815   -0.586936049924   -0.109453266618
 H    1.045768668815   -0.782936049924    2.808546733382
 H    2.737248668815   -0.870966049924    2.238139033382
 H    1.794188668815    0.654703950076    2.060376333382
 C   -1.636231331185   -0.029936049924   -1.618453266618
 C   -1.335231331185    1.380063950076   -1.106453266618
 H   -1.817231331185    0.004063950076   -2.692453266618
 H   -0.788231331185   -0.681936049924   -1.432453266618
 H   -2.502231331185   -0.450936049924   -1.113453266618
 H   -1.212231331185    1.337063950076   -0.025453266618
 H   -2.163561331185    2.062813950076   -1.346705266618
 H   -0.387821331185    1.751983950076   -1.523689266618
