16
0 1 
 C    2.067855259522    0.346368798866    0.440087682488
 C    2.484855259522   -1.076631201134    0.043087682488
 H    2.933855259522    1.009368798866    0.459087682488
 H    1.333855259522    0.750368798866   -0.251912317512
 H    1.600855259522    0.350368798866    1.426087682488
 H    1.626855259522   -1.735631201134    0.177087682488
 H    3.312985259522   -1.417161201134    0.682029482488
 H    2.795945259522   -1.114621201134   -1.011322317512
 C   -1.534144740478    0.250368798866   -0.108912317512
 C   -3.016144740478    0.478368798866   -0.372912317512
 H   -1.344144740478    0.207368798866    0.965087682488
 H   -1.218144740478   -0.686631201134   -0.568912317512
 H   -0.962144740478    1.068368798866   -0.548912317512
 H   -3.161144740478    0.523368798866   -1.448912317512
 H   -3.332044740478    1.423218798866    0.093422482488
 H   -3.615554740478   -0.360231201134    0.011085982488
