21
1 1 
 C   -1.338920718314   -2.138681806742   -0.717038862017
 C    0.065079281686   -0.822681806742    0.849961137983
 N   -1.118920718314   -1.235681806742    0.420961137983
 N    1.174079281686   -1.231681806742    0.262961137983
 N    0.135079281686    0.026318193258    1.854961137983
 H   -1.924920718314   -0.848681806742    0.908961137983
 H    1.130079281686   -1.912681806742   -0.477038862017
 H    2.072079281686   -0.931681806742    0.606961137983
 H   -0.752920718314    0.333318193258    2.252961137983
 H    1.016079281686    0.317318193258    2.242961137983
 H   -2.330920718314   -2.586681806742   -0.617038862017
 H   -0.609920718314   -2.952681806742   -0.717038862017
 H   -1.300150718314   -1.591571806742   -1.670538862017
 C    0.756079281686    2.267318193258   -0.718038862017
 C    0.268079281686    3.055318193258   -1.928038862017
 H    1.569079281686    2.791318193258   -0.215038862017
 H   -0.064920718314    2.165318193258   -0.005038862017
 H    1.087079281686    1.274318193258   -1.027038862017
 H    0.096079281686    4.078318193258   -1.613038862017
 H    1.025549281686    3.022291193258   -2.724998862017
 H   -0.682570718314    2.643250193258   -2.297458862017
