16
0 1 
 C    1.584540830775    0.561857891607    0.127615363249
 C    2.914540830775   -0.085142108393    0.436615363249
 H    0.783540830775    0.043857891607    0.654615363249
 H    1.617540830775    1.591857891607    0.478615363249
 H    1.391540830775    0.576857891607   -0.944384636751
 H    3.033540830775   -0.165142108393    1.518615363249
 H    3.701540830775    0.569857891607    0.067615363249
 H    3.052920830775   -1.068121108393   -0.037308636751
 C   -1.851459169225    0.233857891607   -0.718384636751
 C   -2.655459169225   -0.720142108393    0.147615363249
 H   -2.371459169225    0.431857891607   -1.657384636751
 H   -1.719459169225    1.172857891607   -0.190384636751
 H   -0.877459169225   -0.198142108393   -0.939384636751
 H   -2.225459169225   -0.711142108393    1.149615363249
 H   -2.593119169225   -1.746313108393   -0.243647636751
 H   -3.700359169225   -0.384357108393    0.221271363249
