27
0 1 
 C   -1.429526560342    1.487519455369    0.709046485006
 C   -1.894526560342    2.776519455369    0.062046485006
 C   -0.407526560342    0.781519455369   -0.151953514994
 C   -0.694526560342    0.513519455369   -1.501953514994
 C    0.852473439658    0.386519455369    0.345046485006
 C    0.222473439658   -0.137480544631   -2.342953514994
 C    1.769473439658   -0.291480544631   -0.509953514994
 C    1.444473439658   -0.557480544631   -1.855953514994
 O    2.376473439658   -1.159480544631   -2.665953514994
 H   -1.010526560342    1.692519455369    1.696046485006
 H   -2.272526560342    0.809519455369    0.828046485006
 H   -2.321526560342    2.568519455369   -0.917953514994
 H   -1.656526560342    0.790519455369   -1.889953514994
 H    1.122473439658    0.595519455369    1.371046485006
 H   -0.034526560342   -0.311480544631   -3.376953514994
 H    2.734473439658   -0.597480544631   -0.131953514994
 H    1.960473439658   -1.437480544631   -3.483953514994
 H   -1.018807560342    3.436489455369   -0.024853514994
 H   -2.696642360342    3.226519455369    0.665456485006
 C   -0.787526560342   -1.370480544631    3.061046485006
 C   -1.292526560342   -2.087480544631    4.315046485006
 H   -0.362526560342   -2.085480544631    2.361046485006
 H   -1.580526560342   -0.756480544631    2.635046485006
 H    0.026473439658   -0.706480544631    3.343046485006
 H   -1.222526560342   -1.390480544631    5.153046485006
 H   -0.629463560342   -2.944220544631    4.505686485006
 H   -2.353524160342   -2.362690544631    4.222596485006
