28
0 1 
 C    2.388997410139   -1.217139768559   -0.336065743944
 C    2.700997410139   -0.902139768559   -1.801065743944
 O    1.676997410139   -2.436139768559   -0.234065743944
 H    3.318997410139   -1.285139768559    0.232934256056
 H    1.784997410139   -0.413139768559    0.076934256056
 H    1.761997410139   -0.932139768559   -2.355065743944
 H    1.491997410139   -2.608139768559    0.697934256056
 H    3.388207410139   -1.653539768559   -2.217167743944
 H    3.098490410139    0.120500231441   -1.879841743944
 C   -2.783002589861   -1.663139768559    0.188934256056
 C   -0.950002589861    0.192860231441    0.514934256056
 C   -1.975002589861   -0.476139768559   -0.242065743944
 C   -0.469002589861    1.264860231441   -0.280065743944
 C   -2.073002589861    0.190860231441   -1.423065743944
 C   -0.386002589861   -0.004139768559    1.782934256056
 C    0.540997410139    2.122860231441    0.154934256056
 C    0.620997410139    0.860860231441    2.222934256056
 C    1.077997410139    1.911860231441    1.409934256056
 N   -1.175002589861    1.229860231441   -1.455065743944
 H   -0.682002589861   -0.843139768559    2.387934256056
 H   -2.128002589861   -2.356139768559    0.718934256056
 H   -3.146002589861   -2.181139768559   -0.700065743944
 H   -2.768002589861   -0.060139768559   -2.217065743944
 H   -1.076002589861    1.870860231441   -2.232065743944
 H    0.922997410139    2.898860231441   -0.480065743944
 H    1.066997410139    0.700860231441    3.193934256056
 H    1.864997410139    2.561860231441    1.768934256056
 H   -3.638277589861   -1.410069768559    0.832720256056
