16
0 1 
 C    1.575369986722    0.022340562522   -1.048773029233
 C    1.327369986722   -1.205659437478   -1.925773029233
 H    2.442369986722    0.579340562522   -1.403773029233
 H    0.703369986722    0.676340562522   -1.085773029233
 H    1.756369986722   -0.285659437478   -0.020773029233
 H    0.431369986722   -1.725659437478   -1.578773029233
 H    2.195618986722   -1.878259437478   -1.864493029233
 H    1.166571986722   -0.879039437478   -2.963783029233
 C   -1.009630013278    1.181340562522    1.259226970767
 C   -1.895630013278    0.002340562522    1.714226970767
 H   -0.974630013278    1.964340562522    2.018226970767
 H    0.005369986722    0.815340562522    1.130226970767
 H   -1.369630013278    1.597340562522    0.315226970767
 H   -1.517630013278   -0.372659437478    2.662226970767
 H   -2.944337013278    0.312110562522    1.833636970767
 H   -1.864808013278   -0.807849437478    0.970826970767
