28
0 1 
 C   -3.771667641133    3.759606343437   -1.596171348683
 C   -1.270667641133    1.532606343437   -0.198171348683
 C   -2.670667641133    3.110606343437   -0.808171348683
 C   -1.953667641133    3.566606343437    0.256828651317
 N   -2.218667641133    1.832606343437   -1.076171348683
 N   -1.088667641133    2.571606343437    0.612828651317
 H   -0.771667641133    0.571606343437   -0.206171348683
 H   -0.422667641133    2.622606343437    1.375828651317
 H   -1.987667641133    4.505606343437    0.778828651317
 H   -4.672667641133    3.715606343437   -0.986171348683
 H   -3.918667641133    3.145606343437   -2.491171348683
 H   -3.576197641133    4.795676343437   -1.909781348683
 C   -0.377667641133   -2.346393656563    2.511828651317
 C    0.258332358867   -1.946393656563    0.085828651317
 C    0.652332358867   -2.285393656563    1.383828651317
 C    1.218332358867   -1.779393656563   -0.940171348683
 C    2.602332358867   -1.938393656563   -0.654171348683
 C    2.026332358867   -2.477393656563    1.639828651317
 C    2.991332358867   -2.307393656563    0.639828651317
 O    3.594332358867   -1.666393656563   -1.580171348683
 H   -0.796667641133   -1.815393656563   -0.122171348683
 H    0.898332358867   -1.577393656563   -1.956171348683
 H   -0.038667641133   -3.049393656563    3.261828651317
 H   -1.335667641133   -2.687393656563    2.117828651317
 H    2.336332358867   -2.760393656563    2.635828651317
 H    3.249332358867   -1.352393656563   -2.433171348683
 H    4.039332358867   -2.455393656563    0.858828651317
 H   -0.577567641133   -1.359673656563    2.955028651317
