23
-1 1 
 C    1.135053478552    1.962122424171   -2.547559636430
 C    0.351053478552    2.970122424171   -1.723559636430
 O    0.919053478552    3.535122424171   -0.763559636430
 O   -0.840946521448    3.188122424171   -2.032559636430
 H    1.147053478552    2.274122424171   -3.594559636430
 H    0.630053478552    0.996122424171   -2.484559636430
 H    2.167502478552    1.841882424171   -2.187569636430
 C    0.166053478552   -4.484877575829    1.210440363570
 C   -0.400946521448   -0.238877575829    0.852440363570
 C    0.778053478552   -0.822877575829    0.404440363570
 C   -1.397946521448   -1.025877575829    1.418440363570
 C    0.956053478552   -2.196877575829    0.523440363570
 C   -1.211946521448   -2.399877575829    1.532440363570
 C   -0.032946521448   -2.995877575829    1.091440363570
 O   -0.581946521448    1.106122424171    0.738440363570
 H    0.184053478552    1.566122424171    0.382440363570
 H    1.557053478552   -0.218877575829   -0.032559636430
 H   -2.308946521448   -0.562877575829    1.768440363570
 H    1.875053478552   -2.646877575829    0.170440363570
 H   -1.991946521448   -3.009877575829    1.969440363570
 H   -0.545946521448   -4.896877575829    1.923440363570
 H    1.161053478552   -4.656877575829    1.604440363570
 H    0.043449478552   -5.009187575829    0.251240363570
