30
0 1 
 C   -0.091256107933    2.060062567999   -2.529553885729
 C    0.749743892067    0.599062567999   -0.535553885729
 C    0.200743892067    0.772062567999   -1.851553885729
 C    0.866743892067   -0.793937432001   -0.309553885729
 C    0.021743892067   -0.472937432001   -2.359553885729
 C    1.141743892067    1.477062567999    0.482446114271
 C    1.359743892067   -1.317937432001    0.878446114271
 C    1.632743892067    0.953062567999    1.672446114271
 C    1.740743892067   -0.428937432001    1.865446114271
 N    0.415743892067   -1.415937432001   -1.441553885729
 H    1.079743892067    2.544062567999    0.343446114271
 H   -0.440256107933    1.883062567999   -3.543553885729
 H    0.853743892067    2.596062567999   -2.569553885729
 H   -0.365256107933   -0.685937432001   -3.351553885729
 H    0.449743892067   -2.425937432001   -1.611553885729
 H    1.437743892067   -2.386937432001    1.022446114271
 H    1.922743892067    1.626062567999    2.468446114271
 H    2.117743892067   -0.811937432001    2.806446114271
 H   -0.805236107933    2.699762567999   -1.990103885729
 C   -2.624256107933   -0.135937432001    0.915446114271
 C   -2.337256107933   -1.630937432001    0.851446114271
 C   -2.114256107933    0.466062567999    2.215446114271
 H   -2.132256107933    0.357062567999    0.078446114271
 H   -3.698256107933    0.044062567999    0.848446114271
 H   -2.695256107933   -2.132937432001    1.748446114271
 H   -1.264256107933   -1.784937432001    0.823446114271
 H   -1.035256107933    0.309062567999    2.274446114271
 H   -2.313256107933    1.537062567999    2.201446114271
 H   -2.794576107933   -2.112067432001   -0.025693885729
 H   -2.606256107933    0.001062567999    3.082456114271
