23
0 1 
 C   -0.396073414273   -2.917401059459   -2.436843961409
 C   -0.163073414273    0.753598940541   -0.124843961409
 C    0.510926585727    0.673598940541   -1.357843961409
 C   -0.870073414273   -0.332401059459    0.349156038591
 C    0.459926585727   -0.530401059459   -2.109843961409
 C   -0.921073414273   -1.515401059459   -0.398843961409
 C   -0.266073414273   -1.631401059459   -1.624843961409
 H   -0.136073414273    1.662598940541    0.459156038591
 H    1.051926585727    1.537598940541   -1.715843961409
 H   -1.380073414273   -0.257401059459    1.298156038591
 H    0.973926585727   -0.607401059459   -3.059843961409
 H   -1.480073414273   -2.362401059459   -0.024843961409
 H   -0.564073414273   -2.617401059459   -3.468843961409
 H   -1.286073414273   -3.439401059459   -2.077843961409
 H    0.449086585727   -3.617501059459   -2.361813961409
 C    0.867926585727    1.784598940541    3.254156038591
 C    0.601926585727    3.256598940541    3.633156038591
 H    0.020926585727    1.385598940541    2.696156038591
 H    1.766926585727    1.719598940541    2.639156038591
 H    1.011926585727    1.188598940541    4.158156038591
 H    1.451926585727    3.639598940541    4.194156038591
 H   -0.297583414273    3.353398940541    4.258866038591
 H    0.508866585727    3.875098940541    2.728296038591
