27
0 1 
 C   -1.251942707403   -2.000067416963   -2.765531675211
 C   -1.773942707403   -2.198067416963   -4.202531675211
 O    0.180057292597   -1.904067416963   -2.742531675211
 H   -1.679942707403   -1.079067416963   -2.363531675211
 H   -1.575942707403   -2.841067416963   -2.149531675211
 H   -2.833942707403   -2.005067416963   -4.224531675211
 H    0.482057292597   -1.791067416963   -1.842531675211
 H   -1.604822707403   -3.221867416963   -4.567431675211
 H   -1.331282707403   -1.455667416963   -4.882921675211
 C    0.092057292597   -0.797067416963    0.238468324789
 C    1.286057292597   -1.786067416963    0.344468324789
 C    0.222057292597    0.488932583037    1.050468324789
 C    0.948057292597    1.589932583037    0.565468324789
 C   -0.432942707403    0.604932583037    2.276468324789
 C    0.999057292597    2.793932583037    1.317468324789
 C   -0.381942707403    1.787932583037    3.024468324789
 C    0.325057292597    2.873932583037    2.550468324789
 H   -0.075942707403   -0.497067416963   -0.793531675211
 H   -0.797942707403   -1.319067416963    0.597468324789
 H    1.151057292597   -2.588067416963   -0.383531675211
 H    1.462057292597    1.512932583037   -0.384531675211
 H   -0.991942707403   -0.242067416963    2.650468324789
 H    1.540057292597    3.657932583037    0.959468324789
 H   -0.891942707403    1.862932583037    3.973468324789
 H    0.352057292597    3.782932583037    3.134468324789
 H    1.317817292597   -2.216367416963    1.356318324789
 H    2.245027292597   -1.328367416963    0.060108324789
