23
0 1 
 C    0.967926801598    0.798625522706   -3.442143136380
 C   -0.985073198402   -0.183374477294    0.262856863620
 C   -1.317073198402    0.977625522706   -0.409143136380
 C   -0.032073198402   -1.039374477294   -0.262143136380
 C   -0.687073198402    1.305625522706   -1.608143136380
 C    0.586926801598   -0.729374477294   -1.474143136380
 C    0.256926801598    0.441625522706   -2.165143136380
 H   -1.471073198402   -0.419374477294    1.198856863620
 H   -2.049073198402    1.645625522706    0.018856863620
 H    0.236926801598   -1.938374477294    0.273856863620
 H   -0.939073198402    2.230625522706   -2.105143136380
 H    1.329926801598   -1.405374477294   -1.873143136380
 H    1.880926801598    0.218625522706   -3.493143136380
 H    1.163926801598    1.867625522706   -3.400143136380
 H    0.411122801598    0.608674522706   -4.371599136380
 C    0.641926801598   -0.711374477294    3.353856863620
 C    0.281926801598   -0.730374477294    4.836856863620
 H    1.703926801598   -0.500374477294    3.238856863620
 H    0.419926801598   -1.674374477294    2.898856863620
 H    0.071926801598    0.067625522706    2.850856863620
 H    0.968926801598   -1.419374477294    5.325856863620
 H   -0.746473198402   -1.096890477294    4.971245963620
 H    0.419445801598    0.271856522706    5.268853163620
