26
0 1 
 C   -1.625289991243   -1.257236202071    2.507569135982
 C   -2.845289991243   -1.977236202071    3.062569135982
 C   -0.526289991243   -2.311236202071    2.565569135982
 H   -1.379289991243   -0.369236202071    3.091569135982
 H   -1.813289991243   -0.984236202071    1.469569135982
 H   -2.796289991243   -2.036236202071    4.150569135982
 H   -3.770289991243   -1.492236202071    2.749569135982
 H    0.140710008757   -2.210236202071    1.707569135982
 H   -2.742189991243   -2.976796202071    2.615071135982
 H   -1.078659991243   -3.262246202071    2.543715135982
 H    0.044790008757   -2.207736202071    3.499997135982
 C   -0.016289991243   -0.157236202071   -3.356430864018
 C    0.263710008757    0.909763797929    0.278569135982
 C    1.413710008757    1.689763797929    0.258569135982
 C   -0.196289991243    0.309763797929   -0.890430864018
 C    0.480710008757    0.492763797929   -2.090430864018
 C    2.100710008757    1.871763797929   -0.932430864018
 C    1.638710008757    1.270763797929   -2.102430864018
 H   -0.276289991243    0.787763797929    1.205569135982
 H    1.768710008757    2.154763797929    1.167569135982
 H   -1.096289991243   -0.287236202071   -0.867430864018
 H    2.998710008757    2.473763797929   -0.953430864018
 H   -0.289289991243   -1.187236202071   -3.137430864018
 H    0.800710008757   -0.190236202071   -4.077430864018
 H    2.175710008757    1.419763797929   -3.024430864018
 H   -0.880549991243    0.346373797929   -3.814064864018
