26
0 1 
 C   -1.315587908664   -2.286036724426    0.584736951409
 C   -2.631587908664   -2.711036724426   -0.041263048591
 C   -1.442587908664   -2.208036724426    2.107736951409
 H   -0.521587908664   -2.982036724426    0.326736951409
 H   -1.028587908664   -1.302036724426    0.211736951409
 H   -3.448587908664   -2.203036724426    0.469736951409
 H   -1.927587908664   -3.110036724426    2.474736951409
 H   -2.807807908664   -3.793631724426    0.042016951409
 H   -2.693667908664   -2.363090724426   -1.082933048591
 H   -0.427577908664   -2.173641724426    2.530306951409
 H   -2.034857908664   -1.330765724426    2.407096951409
 C    3.066412091336    0.390963275574    0.387736951409
 C   -0.173587908664    0.639963275574   -1.678263048591
 C    1.093412091336    0.194963275574   -1.165263048591
 C   -0.807587908664    1.728963275574   -1.055263048591
 C    1.718412091336    0.851963275574   -0.100263048591
 C   -0.188587908664    2.384963275574    0.031736951409
 C    1.073412091336    1.950963275574    0.490736951409
 H   -0.643587908664    0.129963275574   -2.508263048591
 H    1.564412091336   -0.663036724426   -1.621263048591
 H   -1.767587908664    2.086963275574   -1.385263048591
 H   -0.684587908664    3.195963275574    0.537736951409
 H    2.948412091336   -0.572036724426    0.885736951409
 H    3.451412091336    1.099963275574    1.117736951409
 H    1.552412091336    2.529963275574    1.229736951409
 H    3.800462091336    0.286301275574   -0.424803048591
