16
0 1 
 C   -0.680355198185   -1.759131483365   -0.741559793314
 C   -2.153355198185   -1.883131483365   -1.145559793314
 H   -0.206355198185   -2.741131483365   -0.752559793314
 H   -0.144355198185   -1.112131483365   -1.433559793314
 H   -0.609355198185   -1.341131483365    0.262440206686
 H   -2.615355198185   -0.898131483365   -1.066559793314
 H   -2.671175198185   -2.582151483365   -0.472326793314
 H   -2.219855198185   -2.215621483365   -2.191994793314
 C    0.838644801815    1.442868516635    0.615440206686
 C    1.990644801815    2.198868516635    1.275440206686
 H    0.195644801815    2.133868516635    0.091440206686
 H    1.237644801815    0.726868516635   -0.103559793314
 H    0.256644801815    0.909868516635    1.367440206686
 H    2.565644801815    2.700868516635    0.498440206686
 H    1.601744801815    2.943528516635    1.985540206686
 H    2.661764801815    1.481558516635    1.770480206686
