16
0 1 
 C    1.042758949881    1.433866176401   -0.290464169340
 C    2.335758949881    1.530866176401    0.513535830660
 H    0.988758949881    0.475866176401   -0.810464169340
 H    0.187758949881    1.525866176401    0.380535830660
 H    1.001758949881    2.242866176401   -1.021464169340
 H    2.352758949881    2.502866176401    1.010535830660
 H    3.212948949881    1.451874176401   -0.145482169340
 H    2.351678949881    0.758939176401    1.297037830660
 C   -1.919241050119   -0.954133823599    0.389535830660
 C   -1.461241050119   -2.020133823599   -0.615464169340
 H   -2.854241050119   -1.254133823599    0.863535830660
 H   -1.162241050119   -0.794133823599    1.157535830660
 H   -2.060241050119    0.009866176401   -0.100464169340
 H   -0.524241050119   -1.676133823599   -1.058464169340
 H   -2.206371050119   -2.145753823599   -1.414839169340
 H   -1.264941050119   -2.984453823599   -0.123989169340
