27
0 1 
 C    0.887014706348    0.957383762178   -3.093516416003
 C   -1.604985293652    0.218383762178    0.362483583997
 C   -1.597985293652   -0.667616237822   -0.709516416003
 C   -0.785985293652    1.340383762178    0.348483583997
 C   -0.781985293652   -0.433616237822   -1.809516416003
 C    0.035014706348    1.578383762178   -0.778516416003
 C    0.056014706348    0.677383762178   -1.858516416003
 O   -2.436985293652   -0.018616237822    1.414483583997
 H   -2.233985293652   -1.539616237822   -0.700516416003
 H   -2.959985293652   -0.815616237822    1.294483583997
 H   -0.797985293652    2.030383762178    1.179483583997
 H   -0.785985293652   -1.138616237822   -2.627516416003
 H    0.661014706348    2.459383762178   -0.806516416003
 H    0.823014706348    2.023383762178   -3.292516416003
 H    0.440014706348    0.458383762178   -3.948516416003
 H    1.947790706348    0.673259762178   -3.030056416003
 C    1.665014706348   -0.791616237822    2.175483583997
 C    1.632014706348   -2.320616237822    2.114483583997
 C    2.634014706348   -0.139616237822    1.168483583997
 H    0.664014706348   -0.399616237822    2.001483583997
 H    1.975014706348   -0.467616237822    3.167483583997
 H    2.623014706348   -2.705616237822    2.355483583997
 H    2.234014706348   -0.201616237822    0.157483583997
 H    2.751014706348    0.915383762178    1.417483583997
 H    3.608014706348   -0.625616237822    1.210483583997
 H    0.902079706348   -2.706079337822    2.841543583997
 H    1.367112706348   -2.651743937822    1.099503583997
