25
1 1 
 C   -1.069174507317   -2.203371248007   -0.632245569693
 C    1.135825492683   -2.019371248007    0.438754430307
 N    0.383825492683   -2.190371248007   -0.630245569693
 N    0.630825492683   -1.860371248007    1.658754430307
 N    2.437825492683   -2.011371248007    0.227754430307
 H    0.853825492683   -2.597371248007   -1.418245569693
 H   -0.364174507317   -1.918371248007    1.800754430307
 H    1.239825492683   -1.715371248007    2.450754430307
 H    2.855825492683   -2.436371248007   -0.584245569693
 H    3.044825492683   -1.839371248007    1.018754430307
 H   -1.461174507317   -1.308371248007   -0.144245569693
 H   -1.463174507317   -3.095371248007   -0.138245569693
 H   -1.355624507317   -2.183489248007   -1.694105569693
 C    0.254825492683    1.539628751993   -0.342245569693
 C    0.837825492683    1.947628751993   -1.661245569693
 C   -1.687174507317    1.941628751993    1.415754430307
 S   -1.376174507317    2.295628751993   -0.281245569693
 H    0.164825492683    0.457628751993   -0.282245569693
 H    0.874825492683    1.910628751993    0.472754430307
 H    0.840825492683    3.036628751993   -1.732245569693
 H    0.170825492683    1.572628751993   -2.441245569693
 H   -0.876174507317    2.303628751993    2.042754430307
 H   -2.618174507317    2.422628751993    1.720754430307
 H   -1.786174507317    0.863628751993    1.552754430307
 H    1.851965492683    1.568332751993   -1.855285569693
