20
0 1 
 C    0.734215693642    3.052160975511    2.573945923522
 C    0.789215693642    0.918160975511    1.326945923522
 N    0.665215693642    0.330160975511    0.157945923522
 N    0.577215693642    2.225160975511    1.378945923522
 N    1.139215693642    0.215160975511    2.399945923522
 H    0.729215693642    0.871160975511   -0.688054076478
 H    0.720215693642   -0.673839024489    0.086945923522
 H    0.310215693642    2.684160975511    0.521945923522
 H    1.243215693642    0.681160975511    3.285945923522
 H    1.304215693642   -0.775839024489    2.326945923522
 H    1.787215693642    3.053160975511    2.864945923522
 H    0.147215693642    2.646160975511    3.401945923522
 H    0.430215693642    4.093414975511    2.391255923522
 C   -2.046784306358   -1.165839024489   -2.794054076478
 C   -0.930784306358   -1.697839024489   -1.916054076478
 O   -1.180784306358   -2.011839024489   -0.737054076478
 O    0.204215693642   -1.837839024489   -2.421054076478
 H   -2.614784306358   -2.019839024489   -3.169054076478
 H   -1.599784306358   -0.671839024489   -3.661054076478
 H   -2.735580306358   -0.461359024489   -2.304904076478
