22
0 1 
 C    0.334497051442   -0.393378487588   -2.690501276761
 C    1.610497051442   -0.858378487588   -2.004501276761
 H    0.378497051442   -0.592378487588   -3.760501276761
 H   -0.514502948558   -0.931378487588   -2.269501276761
 H    0.188497051442    0.672621512412   -2.518501276761
 H    1.744497051442   -1.915378487588   -2.240501276761
 H    1.474497051442   -0.786378487588   -0.935501276761
 H    2.504817051442   -0.288418487588   -2.296641276761
 C   -0.285502948558    0.441621512412    0.914498723239
 C    0.067497051442    1.270621512412    2.152498723239
 C   -0.007502948558   -1.032378487588    1.199498723239
 C   -1.753502948558    0.643621512412    0.541498723239
 H    0.325497051442    0.775621512412    0.082498723239
 H    1.049497051442    0.955621512412    2.513498723239
 H   -0.654502948558    1.021621512412    2.933498723239
 H   -0.586502948558   -1.354378487588    2.060498723239
 H   -0.296502948558   -1.633378487588    0.336498723239
 H    1.055497051442   -1.184378487588    1.398498723239
 H   -1.975502948558    1.688621512412    0.337498723239
 H   -1.975502948558    0.064621512412   -0.356501276761
 H   -2.396502948558    0.290621512412    1.348498723239
 H    0.083267051442    2.362651512412    2.021278723239
