24
0 1 
 C    1.646211849573   -1.416478317357   -3.032164722802
 C    0.613211849573   -0.594478317357    0.521835277198
 C   -0.016788150427   -1.764478317357    0.916835277198
 C    1.164211849573   -0.467478317357   -0.746164722802
 C    1.087211849573   -1.519478317357   -1.637164722802
 C   -0.107788150427   -2.809478317357    0.032835277198
 C    0.454211849573   -2.703478317357   -1.230164722802
 H    0.686211849573    0.221521682643    1.222835277198
 H   -0.435788150427   -1.849478317357    1.910835277198
 H    1.656211849573    0.451521682643   -1.030164722802
 H   -0.587788150427   -3.728478317357    0.317835277198
 H    1.634211849573   -0.375478317357   -3.350164722802
 H    0.987211849573   -1.966478317357   -3.706164722802
 H    0.388211849573   -3.540478317357   -1.912164722802
 H    2.664651849573   -1.819084317357   -3.135524722802
 C    0.145211849573    3.236521682643    1.093835277198
 C   -1.136788150427    2.449521682643    1.276835277198
 O   -1.365788150427    1.815521682643    2.301835277198
 N   -1.999788150427    2.508521682643    0.261835277198
 H   -0.115788150427    4.288521682643    0.985835277198
 H    0.613211849573    2.906521682643    0.167835277198
 H   -2.901788150427    2.050521682643    0.349835277198
 H   -1.824788150427    3.111521682643   -0.525164722802
 H    0.869551849573    3.132315682643    1.915095277198
