19
0 1 
 C    0.014920501466    0.926751133199    1.144305566969
 C   -1.387079498534    1.517751133199    1.295305566969
 C    0.974920501466    1.105751133199    2.333305566969
 H   -0.085079498534   -0.141248866801    0.944305566969
 H    0.482920501466    1.374751133199    0.268305566969
 H   -1.938079498534    0.919751133199    2.022305566969
 H    1.052920501466    2.167751133199    2.549305566969
 H   -1.899219498534    1.507131133199    0.321858666969
 H   -1.321129498534    2.551951133199    1.664196566969
 H    0.629250501466    0.618641133199    3.257013566969
 H    1.991620501466    0.778491133199    2.070217566969
 C    0.468920501466   -1.333248866801   -1.763694433031
 C   -0.077079498534   -2.155248866801   -2.927694433031
 H    0.001920501466   -0.346248866801   -1.749694433031
 H    0.239920501466   -1.844248866801   -0.826694433031
 H    1.550920501466   -1.231248866801   -1.850694433031
 H    0.379920501466   -3.143248866801   -2.890694433031
 H    0.147460501466   -1.680908866801   -3.894431433031
 H   -1.169079498534   -2.266628866801   -2.856037433031
