23
0 1 
 C    2.175441608908    0.142255169375   -1.968275389590
 C    1.479441608908    0.621255169375   -3.239275389590
 H    3.206441608908    0.496255169375   -1.923275389590
 H    1.642441608908    0.511255169375   -1.091275389590
 H    2.167441608908   -0.948744830625   -1.937275389590
 H    0.463441608908    0.231255169375   -3.219275389590
 H    1.968795608908    0.266095169375   -4.158185389590
 H    1.413812608908    1.718835169375   -3.270955389590
 C   -0.163558391092   -2.482744830625    0.413724610410
 C   -0.924558391092   -0.201744830625   -0.311275389590
 C   -0.436558391092   -1.042744830625    0.691724610410
 C   -1.178558391092    1.146255169375   -0.069275389590
 C   -0.907558391092    1.661255169375    1.154724610410
 C   -0.182558391092   -0.505744830625    1.943724610410
 C   -0.435558391092    0.849255169375    2.183724610410
 H   -1.128558391092   -0.604744830625   -1.294275389590
 H   -1.567558391092    1.779255169375   -0.856275389590
 H    0.717441608908   -2.791744830625    0.978724610410
 H    0.076441608908   -2.594744830625   -0.645275389590
 H   -1.078558391092    2.713255169375    1.341724610410
 H    0.198441608908   -1.130744830625    2.739724610410
 H   -0.240558391092    1.273255169375    3.159724610410
 H   -1.004642391092   -3.148844830625    0.656404610410
