23
0 1 
 C   -0.774637780685   -3.407209141679   -1.108079980886
 C   -1.406637780685   -4.719209141679   -0.652079980886
 H    0.050362219315   -3.157209141679   -0.445079980886
 H   -0.378637780685   -3.513209141679   -2.117079980886
 H   -1.480637780685   -2.581209141679   -1.138079980886
 H   -2.134637780685   -5.027209141679   -1.404079980886
 H   -1.933827780685   -4.599199141679    0.305868019114
 H   -0.631517780685   -5.495759141679   -0.573640980886
 C    0.143362219315    2.638790858321   -1.783079980886
 C    0.454362219315   -0.294209141679    0.636920019114
 C    0.350362219315    0.437790858321   -0.550079980886
 C    0.482362219315    0.345790858321    1.869920019114
 C    0.288362219315    1.821790858321   -0.521079980886
 C    0.444362219315    1.713790858321    1.902920019114
 C    0.348362219315    2.447790858321    0.719920019114
 H    0.508362219315   -1.366209141679    0.602920019114
 H    0.291362219315   -0.092209141679   -1.482079980886
 H    0.577362219315   -0.224209141679    2.781920019114
 H    0.491362219315    2.223790858321    2.851920019114
 H    0.948362219315    2.386790858321   -2.475079980886
 H    0.257362219315    3.693790858321   -1.525079980886
 H    0.322362219315    3.525790858321    0.776920019114
 H   -0.819987780685    2.496630858321   -2.294699980886
