24
0 1 
 C   -2.471474384464    0.621914966057   -1.761062791765
 C   -0.729474384464   -0.123085033943   -0.090062791765
 C   -1.277474384464    0.894914966057   -0.881062791765
 C    0.336525615536    0.137914966057    0.772937208235
 C   -0.741474384464    2.186914966057   -0.782062791765
 C    0.867525615536    1.427914966057    0.854937208235
 C    0.330525615536    2.454914966057    0.081937208235
 O    1.899525615536    1.714914966057    1.694937208235
 H   -1.143474384464   -1.121085033943   -0.142062791765
 H    0.759525615536   -0.648085033943    1.377937208235
 H   -3.003474384464    1.556914966057   -1.932062791765
 H   -3.148474384464   -0.012085033943   -1.186062791765
 H   -1.160474384464    2.989914966057   -1.373062791765
 H    0.732525615536    3.454914966057    0.149937208235
 H    2.249525615536    2.584914966057    1.485937208235
 H   -2.283665384464    0.128554966057   -2.726113791765
 C    0.486525615536   -3.518085033943    0.020937208235
 C    0.905525615536   -4.982085033943   -0.087062791765
 H    1.186525615536   -2.958085033943    0.638937208235
 H    0.499525615536   -3.076085033943   -0.976062791765
 H   -0.525474384464   -3.436085033943    0.420937208235
 H    1.980525615536   -5.042085033943   -0.261062791765
 H    0.386525615536   -5.420085033943   -0.938062791765
 H    0.629074615536   -5.517035033943    0.833482308235
