24
0 1 
 C    0.397968587615    2.560109488460   -0.652380688126
 C   -0.384031412385    3.319109488460   -1.716380688126
 H   -0.291031412385    2.068109488460    0.033619311874
 H    1.029968587615    1.803109488460   -1.114380688126
 H    1.026968587615    3.255109488460   -0.095380688126
 H    0.330968587615    3.872109488460   -2.323380688126
 H   -1.085021412385    4.021549488460   -1.241839688126
 H   -0.930891412385    2.622519488460   -2.368845688126
 C    0.196968587615   -0.512890511540    3.236619311874
 C   -1.243031412385   -0.671890511540   -0.281380688126
 C   -0.107031412385   -0.956890511540   -1.030380688126
 C   -1.143031412385   -0.527890511540    1.099619311874
 C    0.082968587615   -0.677890511540    1.742619311874
 C    1.123968587615   -1.098890511540   -0.401380688126
 C    1.214968587615   -0.955890511540    0.978619311874
 O   -0.195031412385   -1.093890511540   -2.380380688126
 H   -2.189031412385   -0.550890511540   -0.785380688126
 H   -2.025031412385   -0.290890511540    1.678619311874
 H    2.011968587615   -1.307890511540   -0.973380688126
 H    0.662968587615   -1.271890511540   -2.764380688126
 H    0.928968587615   -1.230890511540    3.603619311874
 H   -0.754031412385   -0.743890511540    3.719619311874
 H    2.174968587615   -1.059890511540    1.467619311874
 H    0.539958587615    0.495179488460    3.512594311874
