22
1 1 
 C   -1.783364264633   -1.528014977346   -2.205896334566
 C   -1.382364264633   -0.123014977346   -2.359896334566
 O   -0.568364264633    0.475985022654   -1.664896334566
 N   -1.903364264633    0.637985022654   -3.158896334566
 H   -2.791364264633   -1.678014977346   -2.594896334566
 H   -1.771364264633   -1.757014977346   -1.144896334566
 H   -1.581364264633    1.591985022654   -3.162896334566
 H   -2.624364264633    0.318985022654   -3.788896334566
 H   -1.063711264633   -2.156454977346   -2.751023334566
 C    3.017635735367    0.694985022654    2.040103665434
 C    0.668635735367   -0.043014977346    1.840103665434
 N   -0.174364264633   -0.877014977346    1.247103665434
 N    1.946635735367   -0.160014977346    1.549103665434
 N    0.229635735367    0.845985022654    2.710103665434
 H    0.219635735367   -1.606014977346    0.646103665434
 H   -1.164364264633   -0.892014977346    1.425103665434
 H    2.198635735367   -0.863014977346    0.852103665434
 H    0.879635735367    1.432985022654    3.219103665434
 H   -0.758364264633    0.966985022654    2.849103665434
 H    2.634635735367    1.698985022654    2.224103665434
 H    3.772635735367    0.781985022654    1.256103665434
 H    3.502865735367    0.292085022654    2.941341665434
