23
0 1 
 C   -1.649170154886   -1.385922961701    1.454865044916
 C   -3.122170154886   -1.521922961701    1.083865044916
 H   -1.093170154886   -2.245922961701    1.102865044916
 H   -1.244170154886   -0.490922961701    0.985865044916
 H   -1.520170154886   -1.273922961701    2.531865044916
 H   -3.640170154886   -0.663922961701    1.504865044916
 H   -3.564330154886   -2.450603961701    1.473795044916
 H   -3.254750154886   -1.495261961701   -0.007794955084
 C    1.163829845114   -1.277922961701   -2.099134955084
 C   -0.285170154886    1.754077038299   -0.292134955084
 C   -0.034170154886    0.783077038299   -1.270134955084
 C    0.458829845114    1.788077038299    0.868865044916
 C    0.957829845114   -0.185922961701   -1.074134955084
 C    1.448829845114    0.829077038299    1.065865044916
 C    1.694829845114   -0.156922961701    0.112865044916
 H   -1.060170154886    2.492077038299   -0.449134955084
 H   -0.627170154886    0.774077038299   -2.174134955084
 H    0.272829845114    2.543077038299    1.617865044916
 H    2.028829845114    0.846077038299    1.977865044916
 H    2.197829845114   -1.624922961701   -2.066134955084
 H    1.013829845114   -0.855922961701   -3.080134955084
 H    2.465829845114   -0.877922961701    0.295865044916
 H    0.482349845114   -2.126004961701   -1.936842955084
