30
0 1 
 C    4.032132867275   -2.994956012129   -0.418107461425
 C    0.363132867275   -2.149956012129   -0.869107461425
 C    0.383132867275   -1.454956012129   -2.077107461425
 C    1.552132867275   -2.648956012129   -0.334107461425
 C    2.763132867275   -2.452956012129   -0.998107461425
 C    1.591132867275   -1.258956012129   -2.746107461425
 C    2.776132867275   -1.759956012129   -2.208107461425
 H   -0.568867132725   -2.295956012129   -0.342107461425
 H   -0.536867132725   -1.069956012129   -2.496107461425
 H    1.528132867275   -3.197956012129    0.594892538575
 H    1.604132867275   -0.729956012129   -3.686107461425
 H    4.555132867275   -3.561956012129   -1.180107461425
 H    3.765132867275   -3.703956012129    0.368892538575
 H    3.703132867275   -1.608956012129   -2.742107461425
 H    4.695820867275   -2.229656012129    0.010659538575
 C   -3.342867132725    2.392043987871    3.352892538575
 C   -1.741867132725    0.875043987871    0.267892538575
 C   -2.543867132725    1.041043987871    1.393892538575
 C   -0.892867132725    1.906043987871   -0.136107461425
 C   -2.508867132725    2.233043987871    2.114892538575
 C   -0.854867132725    3.099043987871    0.580892538575
 C   -1.659867132725    3.259043987871    1.702892538575
 H   -1.764867132725   -0.052956012129   -0.283107461425
 H   -3.194867132725    0.240043987871    1.707892538575
 H   -0.249867132725    1.778043987871   -0.995107461425
 H   -0.200867132725    3.898043987871    0.260892538575
 H   -4.292867132725    1.873043987871    3.220892538575
 H   -3.571867132725    3.450043987871    3.492892538575
 H   -1.625867132725    4.185043987871    2.255892538575
 H   -2.842842132725    2.019533987871    4.259098538575
