24
0 1 
 C    2.031066012901    0.205097839984    2.498452819676
 C   -1.490933987099   -0.128902160016    0.031452819676
 C   -0.791933987099   -1.258902160016    0.448452819676
 C   -0.975933987099    1.119097839984    0.336452819676
 C    0.369066012901   -1.139902160016    1.207452819676
 C    0.130066012901    1.251097839984    1.179452819676
 C    0.842066012901    0.096097839984    1.589452819676
 O   -2.638933987099   -0.339902160016   -0.755547180324
 H   -1.152933987099   -2.243902160016    0.185452819676
 H   -2.833933987099   -1.274902160016   -0.870547180324
 H   -1.502933987099    1.993097839984   -0.011547180324
 H    0.871066012901   -2.039902160016    1.524452819676
 H    0.474066012901    2.235097839984    1.472452819676
 H    1.721066012901   -0.122902160016    3.489452819676
 H    2.329066012901    1.251097839984    2.577452819676
 H    2.897836012901   -0.397502160016    2.189302819676
 C    1.012066012901    0.854097839984   -2.743547180324
 C    1.524066012901   -0.567902160016   -2.983547180324
 H    0.833066012901    1.359097839984   -3.692547180324
 H    0.082066012901    0.821097839984   -2.179547180324
 H    1.746066012901    1.400097839984   -2.151547180324
 H    1.766066012901   -1.035902160016   -2.034547180324
 H    2.389596012901   -0.537272160016   -3.661722180324
 H    0.713376012901   -1.131322160016   -3.468657180324
