16
0 1 
 C    0.980968406615    0.381276101169    1.636628441630
 C    0.880968406615   -0.802723898831    2.595628441630
 H    1.515968406615    0.083276101169    0.735628441630
 H   -0.018031593385    0.729276101169    1.373628441630
 H    1.512968406615    1.200276101169    2.114628441630
 H    0.434968406615   -0.435723898831    3.515628441630
 H    1.876108406615   -1.211263898831    2.825387441630
 H    0.211658406615   -1.578553898831    2.195481441630
 C   -0.383031593385    0.602276101169   -1.764371558370
 C   -1.478031593385   -0.178723898831   -2.475371558370
 H   -0.797031593385    1.334276101169   -1.072371558370
 H    0.228968406615   -0.096723898831   -1.194371558370
 H    0.247968406615    1.086276101169   -2.503371558370
 H   -2.075031593385   -0.673723898831   -1.716371558370
 H   -2.116404593385    0.491966101169   -3.069223558370
 H   -1.032511593385   -0.954413898831   -3.115535558370
