20
1 1 
 C    1.257772569409    0.132275407103    1.947439124143
 C    1.729772569409   -0.439724592897    0.617439124143
 O    1.126772569409   -0.207724592897   -0.429560875857
 N    2.814772569409   -1.191724592897    0.656439124143
 H    2.110772569409    0.573275407103    2.467439124143
 H    0.891772569409   -0.702724592897    2.550439124143
 H    3.134772569409   -1.604724592897   -0.207560875857
 H    3.265772569409   -1.411724592897    1.531439124143
 H    0.462452569409    0.884524407103    1.839769124143
 C   -2.155227430591    0.008275407103   -0.657560875857
 C   -3.517227430591    0.471275407103   -1.109560875857
 N   -1.181227430591    1.109275407103   -0.896560875857
 H   -2.189227430591   -0.306724592897    0.389439124143
 H   -1.877227430591   -0.869724592897   -1.253560875857
 H   -4.223227430591   -0.360724592897   -1.052560875857
 H   -3.476227430591    0.799275407103   -2.150560875857
 H   -1.409227430591    1.934275407103   -0.349560875857
 H   -0.224227430591    0.785275407103   -0.751560875857
 H   -1.214227430591    1.370275407103   -1.880560875857
 H   -3.862937430591    1.302579407103   -0.477570875857
