24
0 1 
 C   -0.020319261722   -0.302918636030    3.650640016633
 C    0.992680738278   -1.207918636030    4.329640016633
 H   -0.969319261722   -0.790918636030    3.457640016633
 H   -0.211319261722    0.557081363970    4.294640016633
 H    0.468680738278    0.046081363970    2.753640016633
 H    0.585680738278   -1.431918636030    5.306640016633
 H    1.137368738278   -2.134778636030    3.755187016633
 H    1.949095938278   -0.680462636030    4.460255016633
 C    0.513680738278   -2.509918636030   -2.019359983367
 C   -0.358319261722    0.435081363970    0.240640016633
 C   -0.453319261722    1.472081363970   -0.672359983367
 C   -0.029319261722   -0.850918636030   -0.190359983367
 C    0.213680738278   -1.107918636030   -1.538359983367
 C   -0.222319261722    1.227081363970   -2.013359983367
 C    0.102680738278   -0.057918636030   -2.443359983367
 O   -0.773319261722    2.734081363970   -0.275359983367
 H   -0.640319261722    0.652081363970    1.249640016633
 H    0.017680738278   -1.658918636030    0.526640016633
 H   -0.295319261722    2.033081363970   -2.730359983367
 H   -0.633319261722    3.371081363970   -0.984359983367
 H    1.020680738278   -3.047918636030   -1.224359983367
 H    1.170680738278   -2.445918636030   -2.884359983367
 H    0.272680738278   -0.237918636030   -3.497359983367
 H   -0.400469261722   -3.053797636030   -2.299583983367
