23
0 1 
 C    1.746235710440   -0.665823430651    0.930478519207
 C    1.003235710440   -1.251823430651    2.133478519207
 C    0.914235710440    1.619176569349    0.432478519207
 N    0.945235710440    0.319176569349    0.193478519207
 N    1.646235710440    2.139176569349    1.400478519207
 N    0.146235710440    2.404176569349   -0.292521480793
 H    2.698235710440   -0.240823430651    1.253478519207
 H    1.984235710440   -1.486823430651    0.252478519207
 H    1.652235710440   -1.978823430651    2.622478519207
 H    0.107235710440   -1.768823430651    1.789478519207
 H    0.297235710440   -0.057823430651   -0.499521480793
 H    2.339235710440    1.580176569349    1.864478519207
 H    1.632235710440    3.135176569349    1.563478519207
 H   -0.468764289560    1.956176569349   -0.966521480793
 H    0.125235710440    3.400176569349   -0.154521480793
 H    0.717835710440   -0.474383430651    2.857450519207
 C   -2.804764289560   -1.935823430651   -1.142521480793
 C   -1.519764289560   -1.114823430651   -1.208521480793
 O   -0.442764289560   -1.697823430651   -0.960521480793
 O   -1.568764289560    0.104176569349   -1.493521480793
 H   -2.965764289560   -2.220823430651   -0.101521480793
 H   -2.686764289560   -2.847823430651   -1.729521480793
 H   -3.678384289560   -1.387553430651   -1.524866480793
