30
0 1 
 C   -1.743782851900   -2.084985825794   -3.948970853968
 C   -0.174782851900   -0.169985825794   -1.097970853968
 C    1.097217148100    0.086014174206   -1.511970853968
 C   -1.063782851900   -0.899985825794   -1.857970853968
 C   -0.725782851900   -1.308985825794   -3.117970853968
 C    1.506217148100   -0.375985825794   -2.744970853968
 C    0.592217148100   -1.047985825794   -3.545970853968
 H   -0.499782851900    0.182014174206   -0.139970853968
 H    1.777217148100    0.640014174206   -0.877970853968
 H   -2.021782851900   -1.161985825794   -1.445970853968
 H    2.513217148100   -0.190985825794   -3.093970853968
 H   -2.735782851900   -1.661985825794   -3.785970853968
 H   -1.756782851900   -3.110985825794   -3.590970853968
 H    0.928217148100   -1.363985825794   -4.518970853968
 H   -1.528332851900   -2.090745825794   -5.027650853968
 C    0.152217148100   -0.968985825794    2.523029146032
 C   -0.766782851900   -1.512985825794    3.640029146032
 C    0.254217148100    0.517014174206    2.411029146032
 C    1.340217148100    1.347014174206    2.480029146032
 C   -0.384782851900    2.562014174206    1.883029146032
 N   -0.800782851900    1.295014174206    2.015029146032
 N    0.911217148100    2.631014174206    2.181029146032
 H    1.151217148100   -1.388985825794    2.644029146032
 H   -0.238782851900   -1.325985825794    1.573029146032
 H   -0.927782851900   -2.571985825794    3.443029146032
 H    2.354217148100    1.040014174206    2.702029146032
 H   -1.001782851900    3.395014174206    1.578029146032
 H    1.488217148100    3.463014174206    2.122029146032
 H   -1.747242851900   -1.018615825794    3.705594146032
 H   -0.272232851900   -1.448915825794    4.620495146032
