19
0 1 
 C    0.750808124801    0.425760775411    1.452622084439
 C    2.183808124801    0.164760775411    0.962622084439
 C   -0.028191875199   -0.838239224589    1.808622084439
 H    0.759808124801    1.093760775411    2.309622084439
 H    0.199808124801    0.927760775411    0.658622084439
 H    2.120808124801   -0.450239224589    0.062622084439
 H    0.328808124801   -1.252239224589    2.751622084439
 H   -1.083191875199   -0.587239224589    1.921622084439
 H    0.081808124801   -1.583239224589    1.019622084439
 H    2.687567124801    1.110200775411    0.712882084439
 H    2.768631124801   -0.383511224589    1.715872084439
 C   -0.763191875199   -0.247239224589   -2.036377915561
 C   -2.082191875199    0.527760775411   -2.088377915561
 H    0.079808124801    0.416760775411   -2.217377915561
 H   -0.651191875199   -0.711239224589   -1.059377915561
 H   -0.773191875199   -1.031239224589   -2.793377915561
 H   -2.868191875199   -0.175239224589   -1.811377915561
 H   -2.291564875199    0.894696775411   -3.104017915561
 H   -2.086514875199    1.340415775411   -1.347047915561
