30
0 1 
 C    1.114600900206    2.251145289800   -1.883349514988
 C   -0.214399099794    1.074145289800    0.014650485012
 C    0.964600900206    1.684145289800   -0.519349514988
 C    0.080600900206    0.662145289800    1.340650485012
 C    1.898600900206    1.638145289800    0.467650485012
 C   -1.487399099794    0.826145289800   -0.503349514988
 C   -0.853399099794    0.029145289800    2.147650485012
 C   -2.424399099794    0.181145289800    0.296650485012
 C   -2.109399099794   -0.207854710200    1.606650485012
 N    1.376600900206    1.029145289800    1.585650485012
 H   -1.725399099794    1.130145289800   -1.511349514988
 H    1.853600900206    3.054145289800   -1.861349514988
 H    0.159600900206    2.694145289800   -2.170349514988
 H    2.909600900206    2.028145289800    0.383650485012
 H    1.882600900206    0.897145289800    2.456650485012
 H   -0.609399099794   -0.269854710200    3.158650485012
 H   -3.413399099794   -0.026854710200   -0.090349514988
 H   -2.861399099794   -0.698854710200    2.210650485012
 H    1.404680900206    1.506251589800   -2.638986514988
 C    0.159600900206   -2.426854710200   -0.978349514988
 C   -0.481399099794   -2.797854710200   -2.340349514988
 C    1.498600900206   -3.094854710200   -0.598349514988
 H    0.317600900206   -1.349854710200   -0.971349514988
 H   -0.566399099794   -2.653854710200   -0.194349514988
 H    0.172600900206   -2.412854710200   -3.132349514988
 H    1.409600900206   -4.176854710200   -0.677349514988
 H    2.278600900206   -2.748854710200   -1.277349514988
 H   -1.489659099794   -2.365742710200   -2.422120514988
 H   -0.540699099794   -3.892251710200   -2.434050514988
 H    1.763640900206   -2.855260710200    0.442010485012
