24
0 1 
 C    0.282841068927    2.037272296550   -3.864554688798
 C    0.064841068927   -0.079727703450   -0.099554688798
 C   -0.672158931073   -0.511727703450   -1.196554688798
 C    0.890841068927    1.035272296550   -0.224554688798
 C   -0.603158931073    0.187272296550   -2.407554688798
 C    0.967841068927    1.723272296550   -1.447554688798
 C    0.222841068927    1.299272296550   -2.551554688798
 O   -0.003158931073   -0.762727703450    1.077445311202
 H   -0.611158931073   -1.515727703450    0.987445311202
 H   -1.315158931073   -1.373727703450   -1.114554688798
 H    1.469841068927    1.364272296550    0.625445311202
 H   -1.197158931073   -0.151727703450   -3.245554688798
 H    1.610841068927    2.588272296550   -1.531554688798
 H    0.519841068927    3.084272296550   -3.676554688798
 H   -0.708158931073    2.002272296550   -4.321554688798
 H    1.018768068927    1.623223296550   -4.569518688798
 C   -0.447158931073   -1.662727703450    4.090445311202
 C   -0.525158931073   -2.585727703450    5.309445311202
 H   -1.306158931073   -0.993727703450    4.062445311202
 H    0.454841068927   -1.058727703450    4.144445311202
 H   -0.423158931073   -2.258727703450    3.184445311202
 H   -0.635158931073   -1.961727703450    6.194445311202
 H   -1.394253731073   -3.254537703450    5.223608311202
 H    0.404450068927   -3.163651703450    5.418214311202
