18
0 1 
 C   -2.647923560969   -0.423543196435   -1.461615126746
 C   -1.200923560969   -0.728543196435   -1.141615126746
 O   -0.309923560969    0.079456803565   -1.388615126746
 N   -0.958923560969   -1.901543196435   -0.579615126746
 H   -2.948923560969    0.418456803565   -0.845615126746
 H   -3.274923560969   -1.273543196435   -1.194615126746
 H   -0.026923560969   -2.093543196435   -0.229615126746
 H   -1.708923560969   -2.546543196435   -0.390615126746
 H   -2.801739560969   -0.161913196435   -2.518918426746
 C    1.270076439031    0.541456803565    1.498384873254
 C    2.416076439031    0.582456803565    0.487384873254
 O    1.206076439031    1.728456803565    2.270384873254
 H    0.322076439031    0.431456803565    0.975384873254
 H    1.393076439031   -0.316543196435    2.158384873254
 H    2.198076439031   -0.160543196435   -0.281615126746
 H    2.053076439031    1.843456803565    2.745384873254
 H    3.370119439031    0.350366803565    0.983305873254
 H    2.463204439031    1.572146803565    0.009579873254
