15
0 1 
 C    0.403706834967   -1.437372031456   -0.610883588645
 C   -0.898293165033   -0.716372031456   -0.927883588645
 O   -1.160293165033    0.388627968544   -0.460883588645
 N   -1.738293165033   -1.355372031456   -1.715883588645
 H    0.239706834967   -2.025372031456    0.291116411355
 H    1.178706834967   -0.710372031456   -0.376883588645
 H   -2.608293165033   -0.927372031456   -1.976883588645
 H   -1.535293165033   -2.294372031456   -2.024883588645
 H    0.732029834967   -2.128052031456   -1.401553588645
 C    1.624706834967    1.301627968544    2.444116411355
 O    1.495706834967    1.596627968544    1.053116411355
 H    2.388706834967    1.878627968544    0.773116411355
 H    1.955706834967    2.196627968544    2.974116411355
 H    0.648129834967    0.974417968544    2.830422411355
 H    2.373643834967    0.506427968544    2.573517411355
