26
0 1 
 C    2.262346522427    1.447024097193    0.254189790498
 C    0.022346522427    1.008024097193    1.223189790498
 C    0.777346522427    1.428024097193    0.143189790498
 C   -1.378653477573    1.001024097193    1.160189790498
 C    0.137346522427    1.849024097193   -1.024810209502
 C   -2.021653477573    1.411024097193   -0.003810209502
 C   -1.263653477573    1.841024097193   -1.106810209502
 H    0.532346522427    0.688024097193    2.120189790498
 H   -1.956653477573    0.676024097193    2.013189790498
 H    2.655346522427    1.257024097193   -0.739810209502
 H    2.546346522427    0.620024097193    0.909189790498
 H    0.730346522427    2.183024097193   -1.864810209502
 H   -3.102653477573    1.395024097193   -0.051810209502
 H   -1.761653477573    2.164024097193   -2.013810209502
 H    2.654226522427    2.403824097193    0.629619790498
 C    0.382346522427   -2.650975902807    0.261189790498
 C   -0.966653477573   -2.962975902807   -0.421810209502
 C    1.627346522427   -3.309975902807   -0.408810209502
 H    0.499346522427   -1.564975902807    0.250189790498
 H    0.314346522427   -2.984975902807    1.297189790498
 H   -1.060653477573   -4.031975902807   -0.634810209502
 H    1.716346522427   -2.974975902807   -1.442810209502
 H    2.533346522427   -3.029975902807    0.132189790498
 H    1.524346522427   -4.395975902807   -0.391810209502
 H   -1.784695477573   -2.649875902807    0.243609790498
 H   -1.020893477573   -2.390275902807   -1.359400209502
