20
1 1 
 C    0.062150478904    1.755344467213   -2.294474655595
 C    0.358150478904    1.156344467213   -0.936474655595
 O   -0.505849521096    1.147344467213   -0.067474655595
 N    1.571150478904    0.645344467213   -0.749474655595
 H    0.820150478904    2.506344467213   -2.519474655595
 H   -0.906849521096    2.253344467213   -2.245474655595
 H    1.860150478904    0.392344467213    0.182525344405
 H    2.264150478904    0.707344467213   -1.481474655595
 H    0.050590478904    0.995104467213   -3.089394655595
 C    0.093150478904   -1.541655532787    1.261525344405
 C   -0.771849521096   -2.606655532787    0.607525344405
 N   -0.751849521096   -0.495655532787    1.924525344405
 H    0.728150478904   -2.029655532787    2.008525344405
 H    0.743150478904   -1.107655532787    0.502525344405
 H   -1.429849521096   -2.127655532787   -0.119474655595
 H   -1.387849521096   -3.090655532787    1.368525344405
 H   -1.468849521096   -0.905655532787    2.510525344405
 H   -0.189849521096    0.108344467213    2.512525344405
 H   -1.192849521096    0.106344467213    1.232525344405
 H   -0.168999521096   -3.372665532787    0.097815344405
