26
0 1 
 C    3.192507251537   -0.290509704581    0.930833225033
 C    2.957507251537    0.033490295419    2.410833225033
 C    3.528507251537    0.935490295419    0.095833225033
 H    4.006507251537   -1.011509704581    0.851833225033
 H    2.291507251537   -0.741509704581    0.513833225033
 H    2.208507251537    0.825490295419    2.480833225033
 H    2.674507251537    1.614490295419    0.126833225033
 H    4.373507251537    1.477490295419    0.508833225033
 H    3.887307251537    0.366800295419    2.894963225033
 H    2.545347251537   -0.855649704581    2.910383225033
 H    3.745917251537    0.690537295419   -0.954276774967
 C   -2.685492748463    0.250490295419    1.595833225033
 C    0.004507251537    0.197490295419   -1.124166774967
 C   -0.642492748463    0.403490295419    0.107833225033
 C   -0.683492748463   -0.393509704581   -2.183166774967
 C   -1.978492748463    0.024490295419    0.280833225033
 C   -2.014492748463   -0.769509704581   -2.012166774967
 C   -2.656492748463   -0.559509704581   -0.787166774967
 H    1.026507251537    0.514490295419   -1.267166774967
 H   -0.109492748463    0.870490295419    0.923833225033
 H   -0.192492748463   -0.547509704581   -3.135166774967
 H   -2.555492748463   -1.222509704581   -2.834166774967
 H   -2.057492748463   -0.145509704581    2.389833225033
 H   -3.631492748463   -0.294509704581    1.598833225033
 H   -3.691492748463   -0.850509704581   -0.673166774967
 H   -2.877643748463    1.310931295419    1.816153225033
