19
-1 1 
 C   -2.027833708602    2.861006005872    2.328334896385
 C   -0.489833708602    1.133006005872   -0.460665103615
 C   -1.284833708602    1.923006005872    1.427334896385
 C   -0.659833708602    0.750006005872    1.700334896385
 N   -1.171833708602    2.144006005872    0.067334896385
 N   -0.168833708602    0.280006005872    0.504334896385
 H   -0.251833708602    1.009006005872   -1.511665103615
 H    0.292166291398   -0.617993994128    0.343334896385
 H   -0.554833708602    0.297006005872    2.675334896385
 H   -1.600833708602    3.854006005872    2.187334896385
 H   -1.876833708602    2.571006005872    3.368334896385
 H   -3.102703708602    2.896286005872    2.097233996385
 C    2.528166291398   -2.873993994128   -1.588665103615
 C    1.281166291398   -2.056993994128   -1.286665103615
 O    0.688166291398   -2.217993994128   -0.195665103615
 O    0.888166291398   -1.254993994128   -2.154665103615
 H    3.333166291398   -2.216993994128   -1.916665103615
 H    2.296166291398   -3.557993994128   -2.407665103615
 H    2.850886291398   -3.466243994128   -0.719701103615
