30
0 1 
 C    2.316352426241   -3.230593286535    0.023159962113
 C   -1.704647573759   -1.899593286535    0.886159962113
 C   -0.613647573759   -1.323593286535    1.550159962113
 C   -1.482647573759   -2.901593286535   -0.065840037887
 C    0.686352426241   -1.746593286535    1.261159962113
 C   -0.183647573759   -3.318593286535   -0.344840037887
 C    0.912352426241   -2.737593286535    0.301159962113
 H   -2.712647573759   -1.584593286535    1.106159962113
 H   -0.784647573759   -0.550593286535    2.285159962113
 H   -2.309647573759   -3.360593286535   -0.580840037887
 H    1.520352426241   -1.299593286535    1.783159962113
 H   -0.027647573759   -4.102593286535   -1.067840037887
 H    2.271352426241   -4.317593286535   -0.033840037887
 H    2.958352426241   -2.986593286535    0.871159962113
 H    2.781418426241   -2.836966286535   -0.892680037887
 C    2.358352426241    2.558406713465    0.046159962113
 C   -1.065647573759    1.244406713465   -0.998840037887
 C    0.295352426241    1.293406713465   -0.670840037887
 C   -1.843647573759    2.401406713465   -0.940840037887
 C    0.888352426241    2.499406713465   -0.285840037887
 C   -1.259647573759    3.605406713465   -0.548840037887
 C    0.104352426241    3.653406713465   -0.236840037887
 H   -1.510647573759    0.300406713465   -1.277840037887
 H    0.876352426241    0.383406713465   -0.702840037887
 H   -2.890647573759    2.359406713465   -1.201840037887
 H   -1.856647573759    4.506406713465   -0.501840037887
 H    2.536352426241    1.960406713465    0.937159962113
 H    2.639352426241    3.588406713465    0.276159962113
 H    0.549352426241    4.595406713465    0.052159962113
 H    3.009276426241    2.182046713465   -0.756740037887
