23
0 1 
 C    0.349918693631   -1.356903492108    2.467451077453
 C    0.625918693631   -1.650903492108    3.940451077453
 H    0.537918693631   -2.242903492108    1.860451077453
 H   -0.691081306369   -1.057903492108    2.345451077453
 H    0.973918693631   -0.534903492108    2.117451077453
 H    0.504918693631   -0.725903492108    4.501451077453
 H    1.647519693631   -2.031851492108    4.086091077453
 H   -0.110650406369   -2.363642492108    4.339791077453
 C    0.501918693631   -1.602903492108   -2.138548922547
 C   -1.397081306369    0.910096507892   -0.009548922547
 C   -1.006081306369   -0.281903492108   -0.614548922547
 C   -0.670081306369    2.080096507892   -0.227548922547
 C    0.102918693631   -0.314903492108   -1.461548922547
 C    0.447918693631    2.052096507892   -1.055548922547
 C    0.824918693631    0.855096507892   -1.677548922547
 H   -2.260081306369    0.919096507892    0.639451077453
 H   -1.574081306369   -1.182903492108   -0.436548922547
 H   -0.977081306369    3.004096507892    0.241451077453
 H    1.015918693631    2.955096507892   -1.228548922547
 H    0.289918693631   -2.438903492108   -1.469548922547
 H    1.579918693631   -1.587903492108   -2.308548922547
 H    1.682918693631    0.845096507892   -2.336548922547
 H   -0.003666526369   -1.770714492108   -3.100948922547
