16
0 1 
 C   -1.844393803717    0.427463249570   -0.817373151132
 C   -2.009393803717    1.812463249570   -1.408373151132
 H   -1.367393803717    0.506463249570    0.157626848868
 H   -2.824393803717   -0.031536750430   -0.679373151132
 H   -1.238393803717   -0.200536750430   -1.472373151132
 H   -2.590393803717    2.418463249570   -0.714373151132
 H   -1.028323803717    2.277482249570   -1.585183151132
 H   -2.560463803717    1.698922249570   -2.353583151132
 C    1.382606196283   -0.865536750430    0.636626848868
 C    2.478606196283   -1.366536750430    1.587626848868
 H    1.801606196283   -0.157536750430   -0.080373151132
 H    0.955606196283   -1.706536750430    0.089626848868
 H    0.580606196283   -0.383536750430    1.190626848868
 H    2.006606196283   -2.014536750430    2.326626848868
 H    2.965886196283   -0.524406050430    2.100826848868
 H    3.210646196283   -1.976208750430    1.037696848868
