22
0 1 
 C    1.872657764892   -0.716762716923    0.024818483626
 C    2.318657764892   -0.491762716924    1.442818483626
 C    2.718657764892    0.188237283077   -0.883181516374
 H    0.819657764892   -0.459762716924   -0.045181516374
 H    2.015657764892   -1.764762716924   -0.225181516374
 H    1.473657764892   -0.290762716924    2.103818483626
 H    2.880657764892   -1.346762716924    1.821818483626
 H    2.066657764892    0.628237283077   -1.633181516374
 H    3.536657764892   -0.343762716924   -1.376181516374
 H    2.975907764892    0.389037283077    1.396298483626
 H    3.124917764892    0.966937283077   -0.220951516374
 C   -1.839342235108    0.075237283077   -0.381181516374
 C   -1.871342235108    1.065237283076    0.795818483626
 C   -3.209342235108   -0.169762716924   -1.029181516374
 H   -1.154342235108    0.467237283076   -1.130181516374
 H   -1.444342235108   -0.867762716924   -0.006181516374
 H   -0.850342235108    1.091237283076    1.186818483626
 H   -3.607342235108    0.767237283076   -1.415181516374
 H   -3.103342235108   -0.878762716924   -1.849181516374
 H   -3.896342235108   -0.578762716924   -0.290181516374
 H   -2.155892235108    2.071037283076    0.453228483626
 H   -2.562122235108    0.740437283077    1.587868483626
