26
0 1 
 C   -2.603621132825   -0.269307201681    0.667715946727
 C   -1.196621132825   -0.786307201681    0.609715946727
 C   -0.617621132825   -1.125307201681   -0.611284053273
 C   -0.459621132825   -0.989307201681    1.767715946727
 C    0.654378867175   -1.684307201681   -0.658284053273
 C    0.810378867175   -1.544307201681    1.709715946727
 C    1.354378867175   -1.897307201681    0.505715946727
 H   -2.823621132825    0.247692798319   -0.267284053273
 H   -2.681621132825    0.471692798319    1.463715946727
 H   -1.151621132825   -0.942307201681   -1.523284053273
 H   -0.884621132825   -0.731307201681    2.727715946727
 H    1.089378867175   -1.963307201681   -1.608284053273
 H    1.357378867175   -1.716307201681    2.623715946727
 H    2.318378867175   -2.369307201681    0.461715946727
 H   -3.359251132825   -1.053949201681    0.820535946727
 C    0.307378867175    2.102692798319   -1.132284053273
 C    1.446378867175    2.178692798319   -0.085284053273
 C    0.331378867175    3.035692798319   -2.365284053273
 H    0.300378867175    1.084692798319   -1.515284053273
 H   -0.632621132825    2.260692798319   -0.599284053273
 H    1.258378867175    1.441692798319    0.696715946727
 H    1.451378867175    3.172692798319    0.364715946727
 H    0.282378867175    4.076692798319   -2.028284053273
 H    1.265378867175    2.896692798319   -2.918284053273
 H    2.422478867175    1.983622798319   -0.553454053273
 H   -0.531121132825    2.797962798319   -3.005274053273
