16
0 1 
 C   -0.135627388876    0.288366954074   -1.926310710431
 C    0.317372611124   -1.166633045926   -2.032310710431
 H   -0.890627388876    0.394366954074   -1.147310710431
 H    0.720372611124    0.917366954074   -1.682310710431
 H   -0.542627388876    0.626366954074   -2.878310710431
 H    0.943372611124   -1.273633045926   -2.919310710431
 H   -0.548527388876   -1.841623045926   -2.100240710431
 H    0.915492611124   -1.419333045926   -1.144400710431
 C    0.638372611124    0.398366954074    1.772689289569
 C   -0.825627388876    0.478366954074    2.185689289569
 H    1.283372611124    0.623366954074    2.622689289569
 H    0.866372611124   -0.608633045926    1.433689289569
 H    0.838372611124    1.104366954074    0.967689289569
 H   -1.455627388876    0.370366954074    1.302689289569
 H   -1.006317388876    1.456666954074    2.655039289569
 H   -1.058027388876   -0.331403045926    2.892979289569
