18
-1 1 
 C    0.205461714149   -0.964720508805   -2.952023329610
 C    0.761461714149   -2.213720508805   -3.620023329610
 H    0.902461714149   -0.608720508805   -2.195023329610
 H    0.056461714149   -0.198720508805   -3.703023329610
 H   -0.746538285851   -1.187720508805   -2.486023329610
 H    0.134461714149   -2.460720508805   -4.472023329610
 H    0.781794714149   -3.061697808805   -2.919653329610
 H    1.792578714149   -2.041505908805   -3.962283329610
 C    0.435461714149   -0.030720508805    0.795976670390
 C    1.385461714149   -0.439720508805    1.921976670390
 C   -0.637538285851    0.977279491195    1.222976670390
 O   -1.102538285851    0.939279491195    2.383976670390
 O   -1.061538285851    1.800279491195    0.388976670390
 H    1.033461714149    0.399279491195   -0.008023329610
 H   -0.048538285851   -0.928720508805    0.408976670390
 H    0.810461714149   -0.879720508805    2.736976670390
 H    1.864461714149    0.457279491195    2.302976670390
 H    2.161042714149   -1.157507508805    1.616596670390
