16
0 1 
 C    1.774920362977   -0.352197334292   -0.461333809153
 C    2.373920362977   -1.733197334292   -0.232333809153
 H    0.701920362977   -0.424197334292   -0.571333809153
 H    2.023920362977    0.312802665708    0.365666190847
 H    2.182920362977    0.064802665708   -1.383333809153
 H    3.446920362977   -1.664197334292   -0.416333809153
 H    1.951580362977   -2.479805334292   -0.920963809153
 H    2.237160362977   -2.056949334292    0.810006190847
 C   -1.357079637023    0.856802665708    0.458666190847
 C   -2.801079637023    1.224802665708    0.238666190847
 H   -1.236079637023   -0.220197334292    0.347666190847
 H   -0.728079637023    1.387802665708   -0.257333809153
 H   -1.056079637023    1.144802665708    1.466666190847
 H   -2.912079637023    2.300802665708    0.378666190847
 H   -3.465239637023    0.703523665708    0.943756190847
 H   -3.035909637023    0.975928665708   -0.806763809153
