16
0 1 
 C   -1.985937444309   -0.529563140265   -0.175861531815
 C   -2.421937444309   -0.217563140265   -1.612861531815
 H   -1.229937444309   -1.312563140265   -0.172861531815
 H   -1.559937444309    0.370436859735    0.268138468185
 H   -2.837937444309   -0.835563140265    0.433138468185
 H   -3.039937444309    0.678436859735   -1.572861531815
 H   -3.026927444309   -1.028693140265   -2.044193531815
 H   -1.555157444309    0.032856859735   -2.242136531815
 C    1.669062555691   -0.168563140265    0.980138468185
 C    2.745062555691    0.904436859735    0.806138468185
 H    1.739062555691   -0.650563140265    1.952138468185
 H    0.688062555691    0.296436859735    0.897138468185
 H    1.767062555691   -0.927563140265    0.206138468185
 H    2.531062555691    1.727436859735    1.489138468185
 H    3.738962555691    0.494886859735    1.039451468185
 H    2.711201555691    1.288436859735   -0.224103531815
