27
0 1 
 C    2.779668203198    0.531449530736    0.614403784291
 C    0.178668203198    0.639449530736    0.411403784291
 C    1.405668203198    0.671449530736    1.156403784291
 C   -0.879331796802    0.771449530736    1.341403784291
 C    1.072668203198    0.821449530736    2.445403784291
 C   -0.127331796802    0.514449530736   -0.947596215709
 C   -1.491331796802    0.504449530736   -1.344596215709
 C   -2.510331796802    0.645449530736   -0.383596215709
 C   -2.222331796802    0.793449530736    0.965403784291
 N   -0.296331796802    0.870449530736    2.568403784291
 H    0.655668203198    0.378449530736   -1.677596215709
 H   -1.755331796802    0.384449530736   -2.386596215709
 H   -3.535331796802    0.661449530736   -0.717596215709
 H    3.516668203198    0.839449530736    1.358403784291
 H    2.884668203198    1.197449530736   -0.232596215709
 H    1.778668203198    0.870449530736    3.267403784291
 H   -0.795331796802    0.964449530736    3.449403784291
 H   -2.995331796802    0.912449530736    1.705403784291
 H    2.959138203198   -0.505250469264    0.293403784291
 C    0.661668203198   -2.828550469264   -2.314596215709
 C    0.872668203198   -3.065550469264   -3.817596215709
 H    1.586668203198   -2.505550469264   -1.853596215709
 H   -0.111331796802   -2.075550469264   -2.166596215709
 H    0.350668203198   -3.763550469264   -1.859596215709
 H   -0.096331796802   -3.360550469264   -4.223596215709
 H    1.567288203198   -3.906260469264   -3.961536215709
 H    1.198498203198   -2.173650469264   -4.372876215709
