23
0 1 
 C    1.749804427738    0.783762235727   -1.814283113551
 C   -0.464195572262   -0.239237764273   -1.165283113551
 C    0.946804427738   -0.219237764273   -1.041283113551
 C   -1.263195572262   -1.142237764273   -0.450283113551
 C   -0.672195572262   -2.054237764273    0.430716886449
 C    1.560804427738   -1.127237764273   -0.160283113551
 C    0.740804427738   -2.050237764273    0.592716886449
 H   -0.953195572262    0.475762235727   -1.812283113551
 H   -2.333195572262   -1.125237764273   -0.574283113551
 H    2.726804427738    0.884762235727   -1.341283113551
 H    1.249804427738    1.748762235727   -1.742283113551
 H   -1.285195572262   -2.750237764273    0.987716886449
 H    2.635804427738   -1.131237764273   -0.038283113551
 H    1.206804427738   -2.751237764273    1.273716886449
 H    1.885587427738    0.520012235727   -2.873533113551
 C   -0.717195572262    2.637762235727    1.045716886449
 C   -1.701195572262    2.469762235727    2.247716886449
 H   -0.110195572262    1.738762235727    0.931716886449
 H   -1.287195572262    2.795762235727    0.129716886449
 H   -0.068195572262    3.500762235727    1.193716886449
 H   -2.180195572262    3.427762235727    2.438716886449
 H   -1.153275572262    2.146352235727    3.145038886449
 H   -2.480245572262    1.725242235727    2.026877886449
