24
0 1 
 C    2.920265783056    0.313649904726   -1.401158083124
 C    3.378265783056    1.520649904726   -0.589158083124
 H    3.378265783056   -0.601350095274   -1.029158083124
 H    1.840265783056    0.207649904726   -1.306158083124
 H    3.170265783056    0.453649904726   -2.452158083124
 H    3.276265783056    1.271649904726    0.467841916876
 H    2.712265783056    2.355649904726   -0.811158083124
 H    4.409099383056    1.828542904726   -0.818470083124
 C   -1.699734216944   -3.021350095274   -0.319158083124
 C    0.213265783056   -0.005350095274    1.040841916876
 C   -0.156734216944   -1.314350095274    0.781841916876
 C   -0.521734216944    1.028649904726    0.539841916876
 C   -1.274734216944   -1.582350095274    0.007841916876
 C   -1.622734216944    0.799649904726   -0.240158083124
 C   -2.006734216944   -0.500350095274   -0.494158083124
 O   -0.087734216944    2.278649904726    0.807841916876
 H    1.091265783056    0.189649904726    1.637841916876
 H    0.434265783056   -2.126350095274    1.167841916876
 H    0.691265783056    2.286649904726    1.367841916876
 H   -2.160734216944    1.628649904726   -0.668158083124
 H   -0.921734216944   -3.724350095274   -0.022158083124
 H   -1.824734216944   -3.080350095274   -1.399158083124
 H   -2.876734216944   -0.692350095274   -1.103158083124
 H   -2.651386216944   -3.284619095274    0.165658916876
