18
-1 1 
 C   -1.213629117766   -0.607129996156    1.881539647781
 C    0.071370882234    0.213870003844    1.815539647781
 O    1.148370882234   -0.369129996156    2.063539647781
 O    0.022370882234    1.432870003844    1.530539647781
 H   -1.374629117766   -0.892129996156    2.922539647781
 H   -1.095629117766   -1.519129996156    1.294539647781
 H   -2.087249117766   -0.058859996156    1.499194647781
 C   -0.322629117766   -0.244129996156   -1.871460352219
 C    1.121370882234   -0.588129996156   -2.164460352219
 C   -0.855629117766    0.154870003844   -3.241460352219
 H   -0.364629117766    0.602870003844   -1.184460352219
 H   -0.864629117766   -1.098129996156   -1.461460352219
 H    1.727370882234   -0.592129996156   -1.258460352219
 H    1.182370882234   -1.548129996156   -2.678460352219
 H   -1.197629117766   -0.729129996156   -3.782460352219
 H    1.412380882234    0.225250003844   -2.845431352219
 H    0.024680882234    0.578830003844   -3.746751352219
 H   -1.664909117766    0.896410003844   -3.169396352219
