23
0 1 
 C   -2.065035742889   -1.381317857905   -2.515730327167
 C   -3.019035742889   -0.195317857905   -2.456730327167
 H   -2.397035742889   -2.101317857905   -3.263730327167
 H   -1.053035742889   -1.068317857905   -2.762730327167
 H   -2.013035742889   -1.878317857905   -1.547730327167
 H   -2.733035742889    0.447682142095   -1.622730327167
 H   -4.050145742889   -0.538307857905   -2.285940327167
 H   -2.939185742889    0.400622142095   -3.377860327167
 C    2.304964257111    1.069682142095   -0.947730327167
 C   -0.748035742889   -0.248317857905    0.835269672833
 C    0.094964257111    0.224682142095   -0.161730327167
 C   -0.288035742889   -0.381317857905    2.129269672833
 C    1.400964257111    0.582682142095    0.143269672833
 C    1.014964257111   -0.030317857905    2.441269672833
 C    1.842964257111    0.472682142095    1.457269672833
 H   -1.771035742889   -0.513317857905    0.603269672833
 H   -0.270035742889    0.336682142095   -1.170730327167
 H   -0.949035742889   -0.756317857905    2.896269672833
 H    1.370964257111   -0.116317857905    3.458269672833
 H    3.048964257111    1.750682142095   -0.529730327167
 H    1.695964257111    1.646682142095   -1.646730327167
 H    2.833964257111    0.792682142095    1.721269672833
 H    2.811774257111    0.250052142095   -1.478160327167
