19
0 1 
 C    0.198813703416   -1.209496806212    1.282894700298
 C    1.471813703416   -0.609496806212    0.687894700298
 C   -0.134186296584   -0.565496806212    2.623894700298
 H   -0.648186296584   -1.076496806212    0.606894700298
 H    0.336813703416   -2.280496806212    1.444894700298
 H    2.326813703416   -0.840496806212    1.323894700298
 H    1.387813703416    0.475503193788    0.640894700298
 H   -1.035186296584   -1.043496806212    3.023894700298
 H    0.682813703416   -0.765496806212    3.325894700298
 H    1.637453403416   -0.956616806212   -0.342675299702
 H   -0.295098296584    0.518813193788    2.532364700298
 C   -0.933186296584    0.583503193788   -1.779105299702
 C   -0.581186296584    1.715503193788   -2.735105299702
 H   -0.802186296584   -0.383496806212   -2.260105299702
 H   -0.380186296584    0.713503193788   -0.855105299702
 H   -1.989186296584    0.667503193788   -1.514105299702
 H   -1.117186296584    2.613503193788   -2.428105299702
 H   -0.865707296584    1.453916193788   -3.764965299702
 H    0.498449103416    1.921699193788   -2.691855299702
