27
0 1 
 C    0.710883482922    1.433179769822    2.246164697475
 C    0.745883482922    0.195179769822    3.125164697475
 C    0.117883482922    2.460179769822    3.125164697475
 H    0.055883482922    1.270179769822    1.389164697475
 H    1.709883482922    1.716179769822    1.912164697475
 H    0.682883482922   -0.722820230178    2.561164697475
 H    1.624883482922    0.206179769822    3.771164697475
 H   -0.285116517078    3.296179769822    2.550164697475
 H    0.876883482922    2.822179769822    3.820164697475
 H   -0.168846517078    0.297822769822    3.727437697475
 H   -0.660956517078    1.921876769822    3.685202697475
 C   -2.339116517078   -0.064820230178   -3.115835302525
 C    0.791883482922   -0.782820230178   -0.270835302525
 C   -0.426116517078   -1.409820230178   -0.135835302525
 C    0.998883482922    0.116179769822   -1.293835302525
 C   -1.437116517078   -1.155820230178   -1.036835302525
 C   -0.038116517078    0.367179769822   -2.199835302525
 C   -1.245116517078   -0.291820230178   -2.096835302525
 O    1.800883482922   -1.085820230178    0.619164697475
 H   -0.594116517078   -2.111820230178    0.668164697475
 H    1.578883482922   -1.828820230178    1.190164697475
 H    1.954883482922    0.611179769822   -1.391835302525
 H   -2.388116517078   -1.658820230178   -0.915835302525
 H    0.125883482922    1.068179769822   -3.009835302525
 H   -1.985116517078    0.614179769822   -3.892835302525
 H   -3.185116517078    0.409179769822   -2.618835302525
 H   -2.679566517078   -0.999093230178   -3.586183302525
