30
0 1 
 C   -0.192067279905    3.125934777005   -2.381364879338
 C    1.252932720095    0.076934777005   -0.695364879338
 C    0.171932720095    0.737934777005   -1.337364879338
 C    0.623932720095    2.052934777005   -1.707364879338
 C    1.918932720095    2.135934777005   -1.288364879338
 C   -0.058067279905   -1.874065222995   -0.365364879338
 C    1.151932720095   -1.218065222995   -0.207364879338
 C   -1.145067279905   -1.246065222995   -0.988364879338
 C   -1.042067279905    0.057934777005   -1.473364879338
 N    2.297932720095    0.961934777005   -0.678364879338
 H   -0.166067279905   -2.887065222995    0.001635120662
 H    1.989932720095   -1.695065222995    0.280635120662
 H   -2.082067279905   -1.774065222995   -1.091364879338
 H   -1.882067279905    0.538934777005   -1.952364879338
 H    3.206932720095    0.804934777005   -0.257364879338
 H    2.549932720095    3.011934777005   -1.404364879338
 H    0.222932720095    4.102934777005   -2.128364879338
 H   -1.190067279905    3.083934777005   -1.942364879338
 H   -0.291047279905    3.042024777005   -3.473684879338
 C   -1.351067279905   -1.872065222995    2.834635120662
 C   -0.452067279905   -1.017065222995    3.673635120662
 C   -2.723067279905   -1.768065222995    3.459635120662
 H   -1.001067279905   -2.903065222995    2.783635120662
 H   -1.407067279905   -1.441065222995    1.837635120662
 H   -0.021067279905   -1.611065222995    4.479635120662
 H    0.326932720095   -0.583065222995    3.044635120662
 H   -2.839067279905   -2.568065222995    4.192635120662
 H   -3.508067279905   -1.837065222995    2.710635120662
 H   -1.133607279905   -0.256055222995    4.081505120662
 H   -2.749787279905   -0.776385222995    3.934885120662
