25
0 1 
 C   -2.546791877137   -0.842340828145   -1.235996369278
 C   -0.105791877137   -0.738340828145   -0.594996369278
 C   -1.377791877137   -1.276340828145   -0.380996369278
 C    0.956208122863   -1.057340828145    0.252003630722
 C   -1.566791877137   -2.149340828145    0.693003630722
 C    0.750208122863   -1.924340828145    1.323003630722
 C   -0.510791877137   -2.475340828145    1.545003630722
 O    1.777208122863   -2.212340828145    2.170003630722
 H    0.056208122863   -0.054340828145   -1.417996369278
 H    1.930208122863   -0.619340828145    0.093003630722
 H   -3.397791877137   -1.504340828145   -1.064996369278
 H   -2.262791877137   -0.922340828145   -2.286996369278
 H   -2.549791877137   -2.561340828145    0.886003630722
 H   -0.673791877137   -3.139340828145    2.382003630722
 H    1.436208122863   -2.637340828145    2.975003630722
 H   -2.838891877137    0.194799171855   -1.014576369278
 C   -0.398791877137    3.480659171855   -1.880996369278
 C    0.625208122863    2.893659171855   -0.914996369278
 O    1.654208122863    2.376659171855   -1.347996369278
 N    0.358208122863    2.930659171855    0.382003630722
 H   -0.923791877137    2.646659171855   -2.343996369278
 H    0.124208122863    4.004659171855   -2.678996369278
 H    1.030208122863    2.500659171855    1.005003630722
 H   -0.501791877137    3.315659171855    0.761003630722
 H   -1.152011877137    4.136319171855   -1.419736369278
