16
0 1 
 C   -0.669756867892   -0.212231969412   -2.104116639237
 C    0.298243132108    0.800768030588   -2.698116639237
 H   -0.299756867892   -1.226231969412   -2.228116639237
 H   -0.786756867892   -0.015231969412   -1.041116639237
 H   -1.641756867892   -0.119231969412   -2.587116639237
 H    1.265243132108    0.676768030588   -2.209116639237
 H   -0.053756867892    1.790768030588   -2.430116639237
 H    0.433723132108    0.704718030588   -3.785506639237
 C    0.075243132108   -0.035231969412    1.684883360763
 C    0.293243132108   -0.564231969412    3.105883360763
 H    0.244243132108   -0.822231969412    0.957883360763
 H   -0.931756867892    0.362768030588    1.571883360763
 H    0.779243132108    0.773768030588    1.486883360763
 H    0.077243132108    0.258768030588    3.789883360763
 H    1.340093132108   -0.862421969412    3.264583360763
 H   -0.389956867892   -1.392091969412    3.346503360763
