31
0 1 
 C    1.845579096707   -0.357267307648    0.282366476836
 C    3.018579096707    0.465732692352    0.826366476836
 C    2.274579096707   -1.475267307648   -0.625633523164
 C    2.153579096707   -1.608267307648   -1.972633523164
 C    3.190579096707   -3.392267307648   -1.202633523164
 N    2.925579096707   -2.604267307648   -0.164633523164
 N    2.733579096707   -2.813267307648   -2.308633523164
 H    1.310579096707   -0.806267307648    1.118366476836
 H    1.161579096707    0.292732692352   -0.262633523164
 H    3.695579096707   -0.208267307648    1.355366476836
 H    1.697579096707   -0.892267307648   -2.646633523164
 H    3.696579096707   -4.352267307648   -1.157633523164
 H    2.808579096707   -3.204267307648   -3.242633523164
 H    2.655829096707    1.235632692352    1.523266476836
 H    3.577189096707    0.902122692352   -0.014773523164
 C   -4.555420903293    2.226732692352   -1.089633523164
 C   -1.258420903293    1.144732692352    1.469366476836
 C   -2.519420903293    0.593732692352    1.691366476836
 C   -1.052420903293    2.011732692352    0.398366476836
 C   -3.575420903293    0.919732692352    0.839366476836
 C   -2.114420903293    2.330732692352   -0.448633523164
 C   -3.386420903293    1.792732692352   -0.234633523164
 O   -0.231420903293    0.856732692352    2.316366476836
 H   -2.682420903293   -0.070267307648    2.528366476836
 H   -0.572420903293    0.431732692352    3.121366476836
 H   -0.078420903293    2.449732692352    0.239366476836
 H   -4.558420903293    0.507732692352    1.032366476836
 H   -1.952420903293    3.014732692352   -1.271633523164
 H   -5.406420903293    1.564732692352   -0.918633523164
 H   -4.271420903293    2.146732692352   -2.140633523164
 H   -4.847520903293    3.263872692352   -0.868213523164
