20
0 1 
 C   -2.966906427926   -0.654375001708   -0.241833188631
 C   -0.834906427926   -1.369375001708   -1.263833188631
 N    0.469093572074   -1.228375001708   -1.378833188631
 N   -1.517906427926   -0.581375001708   -0.447833188631
 N   -1.452906427926   -2.302375001708   -1.962833188631
 H    0.957093572074   -0.617375001708   -0.720833188631
 H    1.000093572074   -1.827375001708   -1.988833188631
 H   -0.992906427926    0.084624998292    0.099166811369
 H   -2.430906427926   -2.479375001708   -1.813833188631
 H   -0.927906427926   -2.905375001708   -2.576833188631
 H   -3.230906427926    0.061624998292    0.537166811369
 H   -3.253906427926   -1.648375001708    0.109166811369
 H   -3.519586427926   -0.405777101708   -1.159843188631
 C    0.742093572074    2.619624998292    0.842166811369
 C    1.625093572074    1.493624998292    1.367166811369
 O    1.607093572074    0.401624998292    0.761166811369
 O    2.344093572074    1.697624998292    2.366166811369
 H    0.702093572074    3.431624998292    1.571166811369
 H   -0.270906427926    2.237624998292    0.707166811369
 H    1.101143572074    3.007517998292   -0.122523188631
