27
0 1 
 C    0.252667486912   -1.708875708136    2.254424004645
 C    0.591667486912    0.107124291864    0.409424004645
 C    1.073667486912   -0.882875708136    1.329424004645
 C    1.716667486912    0.634124291864   -0.271575995355
 C    2.423667486912   -0.923875708136    1.178424004645
 C   -0.677332513088    0.605124291864    0.093424004645
 C   -0.789332513088    1.597124291864   -0.875575995355
 C    0.343667486912    2.101124291864   -1.529575995355
 C    1.607667486912    1.626124291864   -1.233575995355
 N    2.813667486912   -0.015875708136    0.224424004645
 H   -1.545332513088    0.233124291864    0.610424004645
 H   -1.763332513088    1.984124291864   -1.136575995355
 H    0.221667486912    2.882124291864   -2.266575995355
 H    0.718667486912   -2.674875708136    2.342424004645
 H   -0.732332513088   -1.863875708136    1.813424004645
 H    3.091667486912   -1.579875708136    1.727424004645
 H    3.774667486912    0.210124291864   -0.027575995355
 H    2.491667486912    2.030124291864   -1.697575995355
 H    0.147401486912   -1.295025708136    3.268154004645
 C   -4.215332513088   -0.522875708136   -1.001575995355
 C   -4.059332513088   -1.977875708136   -0.594575995355
 H   -3.372332513088    0.073124291864   -0.661575995355
 H   -4.268332513088   -0.460875708136   -2.089575995355
 H   -5.144332513088   -0.108875708136   -0.609575995355
 H   -4.967332513088   -2.508875708136   -0.883575995355
 H   -3.918449513088   -2.061545708136    0.493154004645
 H   -3.209492513088   -2.429775708136   -1.127075995355
