19
0 1 
 C   -0.629081465042    0.977700533724    1.657602598373
 C   -0.833081465042    2.171700533724    2.581602598373
 H   -1.560081465042    0.421700533724    1.538602598373
 H   -0.328081465042    1.345700533724    0.680602598373
 H    0.140918534958    0.316700533724    2.051602598373
 H   -1.683081465042    2.722700533724    2.199602598373
 H   -1.053141465042    1.842340533724    3.607806598373
 H    0.052258534958    2.824510533724    2.585213598373
 C    0.604918534958   -0.541299466276   -1.629397401627
 C    1.518918534958   -1.284299466276   -0.645397401627
 C   -0.618081465042   -1.360299466276   -2.071397401627
 H    0.263918534958    0.375700533724   -1.158397401627
 H    1.187918534958   -0.269299466276   -2.510397401627
 H    0.928918534958   -1.601299466276    0.218602598373
 H   -0.269081465042   -2.295299466276   -2.496397401627
 H   -1.240081465042   -1.582299466276   -1.202397401627
 H    2.339688534958   -0.637859466276   -0.301227901627
 H    1.919198534958   -2.196329466276   -1.112271301627
 H   -1.218321465042   -0.832399466276   -2.827068401627
