23
-1 1 
 C   -3.733143734630    1.262507294943   -2.461573764526
 C   -0.511143734630    0.548507294943   -0.599573764526
 C   -0.988143734630    0.101507294943    0.632426235474
 C   -1.404143734630    0.964507294943   -1.577573764526
 C   -2.780143734630    0.939507294943   -1.346573764526
 C   -2.363143734630    0.082507294943    0.885426235474
 C   -3.253143734630    0.499507294943   -0.106573764526
 O   -0.105143734630   -0.326492705057    1.578426235474
 H    0.540856265370    0.580507294943   -0.803573764526
 H   -1.020143734630    1.305507294943   -2.516573764526
 H   -2.737143734630   -0.267492705057    1.833426235474
 H   -0.550143734630   -0.541492705057    2.401426235474
 H   -4.554143734630    0.544507294943   -2.422573764526
 H   -3.211143734630    1.072507294943   -3.399573764526
 H   -4.318143734630    0.447507294943    0.073426235474
 H   -4.160053734630    2.275427294943   -2.503333764526
 C    4.638856265370   -0.868492705057   -0.144573764526
 C    3.351856265370   -0.894492705057    0.668426235474
 O    2.415856265370   -0.142492705057    0.342426235474
 O    3.294856265370   -1.682492705057    1.642426235474
 H    4.740856265370   -1.831492705057   -0.652573764526
 H    5.472856265370   -0.762492705057    0.550426235474
 H    4.683286265370   -0.058702705057   -0.887713764526
