31
1 1 
 C    4.075590742330   -1.238521247908   -0.339277715825
 C    0.137590742330   -2.447521247908    0.756722284175
 C    0.824590742330   -3.159521247908   -0.228277715825
 C    0.709590742330   -1.342521247908    1.384722284175
 C    2.090590742330   -2.754521247908   -0.588277715825
 C    1.995590742330   -0.952521247908    1.020722284175
 C    2.683590742330   -1.659521247908    0.027722284175
 H   -0.855409257670   -2.765521247908    1.046722284175
 H    0.373590742330   -4.020521247908   -0.699277715825
 H    0.166590742330   -0.803521247908    2.147722284175
 H    2.617590742330   -3.285521247908   -1.365277715825
 H    2.458590742330   -0.102521247908    1.503722284175
 H    4.211590742330   -0.190521247908   -0.099277715825
 H    4.171590742330   -1.352521247908   -1.407277715825
 H    4.866160742330   -1.828751247908    0.147172284175
 C   -1.796409257670    0.412478752092   -0.609277715825
 C   -1.691409257670    0.501478752092   -2.127277715825
 C   -1.983409257670    2.751478752092    0.231722284175
 N   -2.480409257670    1.542478752092   -0.003277715825
 N   -0.749409257670    3.103478752092   -0.064277715825
 N   -2.786409257670    3.627478752092    0.808722284175
 H   -2.339409257670   -0.499521247908   -0.354277715825
 H   -0.795409257670    0.326478752092   -0.182277715825
 H   -1.214409257670    1.438478752092   -2.415277715825
 H   -2.688409257670    0.468478752092   -2.560277715825
 H   -3.440409257670    1.403478752092    0.313722284175
 H   -0.130409257670    2.440478752092   -0.498277715825
 H   -0.425409257670    4.038478752092    0.129722284175
 H   -3.719409257670    3.302478752092    1.056722284175
 H   -2.486409257670    4.565478752092    1.017722284175
 H   -1.073449257670   -0.339771247908   -2.474297715825
