24
0 1 
 C    0.759294852229   -0.907922698086    2.902865786688
 C    0.827294852229   -0.522922698086    1.444865786688
 C    0.958294852229    0.816077301914    1.057865786688
 C    0.797294852229   -1.507922698086    0.456865786688
 C    1.018294852229    1.164077301914   -0.297134213312
 C    0.871294852229   -1.171922698086   -0.895134213312
 C    0.980294852229    0.165077301914   -1.276134213312
 O    1.022294852229    0.492077301914   -2.609134213312
 H   -0.217705147771   -1.356922698086    3.089865786688
 H    0.835294852229   -0.014922698086    3.525865786688
 H    0.993294852229    1.594077301914    1.809865786688
 H    0.691294852229   -2.542922698086    0.735865786688
 H    1.098294852229    2.203077301914   -0.583134213312
 H    0.842294852229   -1.941922698086   -1.647134213312
 H    1.165294852229    1.431077301914   -2.755134213312
 H    1.539474852229   -1.628202698086    3.190115786688
 C   -2.556705147771    0.570077301914    0.102865786688
 C   -3.962705147771    0.633077301914   -0.526134213312
 H   -2.487705147771    1.242077301914    0.951865786688
 H   -2.318705147771   -0.442922698086    0.421865786688
 H   -1.792705147771    0.837077301914   -0.622134213312
 H   -4.033705147771   -0.152922698086   -1.276134213312
 H   -4.139911147771    1.591696701914   -1.035694213312
 H   -4.739848147771    0.448658301914    0.230195786688
