30
0 1 
 C    2.434374130047   -3.714453720978    0.113653759178
 C    3.697374130047   -3.140453720978    0.617653759178
 C    2.869374130047   -4.916453720978   -0.691346240822
 H    1.888374130047   -2.994453720978   -0.492346240822
 H    1.823374130047   -4.043453720978    0.955653759178
 H    4.097374130047   -2.455453720978   -0.130346240822
 H    3.534374130047   -2.618453720978    1.559653759178
 H    2.175374130047   -5.736453720978   -0.492346240822
 H    4.408064130047   -3.969833720978    0.748218759178
 H    3.868684130047   -5.159033720978   -0.300778240822
 H    2.874444130047   -4.700723720978   -1.769973240822
 C   -0.420625869953    4.265546279022   -0.078346240822
 C   -1.744625869953    0.710546279022    0.183653759178
 C   -0.678625869953    1.619546279022   -0.078346240822
 C   -1.190625869953    2.958546279022    0.096653759178
 C   -2.501625869953    2.811546279022    0.451653759178
 C   -0.339625869953   -1.153453720978   -0.274346240822
 C   -1.588625869953   -0.669453720978    0.088653759178
 C    0.733374130047   -0.277453720978   -0.535346240822
 C    0.574374130047    1.101546279022   -0.438346240822
 N   -2.836625869953    1.471546279022    0.507653759178
 H   -0.202625869953   -2.220453720978   -0.380346240822
 H   -2.417625869953   -1.337453720978    0.277653759178
 H    1.694374130047   -0.679453720978   -0.827346240822
 H    1.397374130047    1.767546279022   -0.656346240822
 H   -3.759625869953    1.122546279022    0.745653759178
 H   -3.184625869953    3.628546279022    0.649653759178
 H   -1.088625869953    4.998546279022   -0.531346240822
 H    0.371374130047    4.081546279022   -0.789346240822
 H   -0.029003869953    4.685963279022    0.859673759178
