22
1 1 
 C    0.280009918712    1.703675083577    2.929963906060
 O    0.357009918712    0.426675083577    2.325963906060
 H    0.971009918712   -0.120324916423    2.842963906060
 H   -0.017990081288    2.435675083577    2.179963906060
 H    1.262009918712    1.985675083577    3.311963906060
 H   -0.454840081288    1.710886083577    3.748465906060
 C   -1.195990081288   -1.186324916423   -0.062036093940
 C   -0.237990081288   -2.282324916423    0.429963906060
 C    0.141009918712    0.283675083577   -1.525036093940
 N   -0.780990081288   -0.653324916423   -1.362036093940
 N    0.458009918712    0.699675083577   -2.732036093940
 N    0.752009918712    0.807675083577   -0.481036093940
 H   -2.205990081288   -1.570324916423   -0.173036093940
 H   -1.256990081288   -0.386324916423    0.674963906060
 H   -0.210990081288   -2.271324916423    1.520963906060
 H    0.772009918712   -2.062324916423    0.079963906060
 H   -1.233990081288   -1.014324916423   -2.198036093940
 H    0.204009918712    0.139675083577   -3.539036093940
 H    1.142009918712    1.428675083577   -2.846036093940
 H    0.509009918712    0.513675083577    0.458963906060
 H    1.477009918712    1.497675083577   -0.602036093940
 H   -0.522230081288   -3.287174916423    0.084300906060
