26
0 1 
 C   -1.471380202051    3.559635357155   -0.104416380117
 C   -1.009380202051    4.779635357155    0.709583619883
 H   -2.387380202051    3.807635357155   -0.645416380117
 H   -0.697380202051    3.277635357155   -0.819416380117
 H   -1.665380202051    2.719635357155    0.562583619883
 H   -0.092380202051    4.528635357155    1.246583619883
 H   -1.791477202051    5.053795357155    1.432883619883
 H   -0.838405202051    5.598635357155   -0.004576380117
 C    0.493619797949    0.261635357155   -0.293416380117
 C    1.543619797949    0.593635357155   -1.333416380117
 C    1.218619797949   -1.768364642845   -1.419416380117
 C   -0.889380202051   -1.328364642845    1.742583619883
 C   -0.154380202051   -1.994364642845    0.582583619883
 O   -0.178380202051   -3.221364642845    0.446583619883
 N    0.498619797949   -1.206364642845   -0.275416380117
 H    0.748619797949    0.660635357155    0.683583619883
 H   -0.490380202051    0.630635357155   -0.590416380117
 H    2.541619797949    0.584635357155   -0.882416380117
 H    1.360619797949    1.565635357155   -1.786416380117
 H    0.623619797949   -2.579364642845   -1.836416380117
 H   -0.430380202051   -0.356364642845    1.922583619883
 H    1.419279797949   -0.227854642845   -2.054316380117
 H    1.324709797949   -0.912424642845   -2.102146380117
 H    2.211159797949   -2.160904642845   -1.153386380117
 H   -1.955487202051   -1.232814642845    1.489033619883
 H   -0.779047202051   -1.929784642845    2.656973619883
