23
0 1 
 C   -0.029719494199   -0.635973289683   -0.484162087164
 C   -0.889719494199   -1.831973289683   -0.018162087164
 C    0.971280505801   -2.237973289683   -2.064162087164
 N    0.968280505801   -1.051973289683   -1.476162087164
 N    0.003280505801   -3.114973289683   -1.865162087164
 N    1.942280505801   -2.567973289683   -2.887162087164
 H   -0.672719494199    0.141026710317   -0.898162087164
 H    0.504280505801   -0.227973289683    0.375837912836
 H   -0.263719494199   -2.693973289683    0.231837912836
 H   -1.778719494199   -1.980973289683   -0.638162087164
 H    1.669280505801   -0.377973289683   -1.751162087164
 H   -0.932719494199   -2.756973289683   -1.802162087164
 H    0.094280505801   -4.030973289683   -2.281162087164
 H    2.705280505801   -1.935973289683   -3.069162087164
 H    1.993280505801   -3.492973289683   -3.283162087164
 H   -1.185599494199   -1.831973289683    1.041297912836
 C    0.421280505801    3.494026710317    2.702837912836
 C   -0.811719494199    2.838026710317    2.185837912836
 O   -0.650719494199    1.838026710317    1.444837912836
 O   -1.915719494199    3.353026710317    2.493837912836
 H    0.169280505801    4.181026710317    3.515837912836
 H    0.820280505801    4.077026710317    1.870837912836
 H    1.154450505801    2.760136710317    3.068697912836
