23
0 1 
 C    1.465551216659    1.746876363907    2.917525105964
 C    2.144551216659    1.354876363907    4.232525105964
 H    1.943551216659    1.253876363907    2.077525105964
 H    0.407551216659    1.489876363907    2.931525105964
 H    1.549551216659    2.826876363907    2.798525105964
 H    1.528551216659    1.692876363907    5.066525105964
 H    3.137841216659    1.824818363907    4.282876105964
 H    2.294871216659    0.266678363907    4.289344105964
 C    0.358551216659    0.880876363907   -2.958474894036
 C   -0.267448783341   -0.653123636093    0.480525105964
 C    0.264551216659    0.127876363907   -0.571474894036
 C   -1.297448783341   -1.555123636093    0.212525105964
 C   -0.233448783341    0.023876363907   -1.870474894036
 C   -1.797448783341   -1.675123636093   -1.103474894036
 C   -1.267448783341   -0.882123636093   -2.136474894036
 H    0.128551216659   -0.565123636093    1.482525105964
 H    1.058551216659    0.828876363907   -0.355474894036
 H   -1.720448783341   -2.150123636093    1.011525105964
 H   -2.631448783341   -2.331123636093   -1.295474894036
 H    0.791551216659    1.774876363907   -2.506474894036
 H   -0.439448783341    1.207876363907   -3.626474894036
 H   -1.682448783341   -0.959123636093   -3.131474894036
 H    1.134991216659    0.353414363907   -3.531990894036
