28
0 1 
 C    1.982752379744   -0.016322543075    1.638921061505
 C    3.135752379744   -0.208322543075    2.612921061505
 O    2.064752379744    1.295677456925    1.084921061505
 H    2.027752379744   -0.764322543075    0.845921061505
 H    1.039752379744   -0.128322543075    2.175921061505
 H    3.034752379744   -1.168322543075    3.117921061505
 H    1.203752379744    1.503677456925    0.701921061505
 H    3.082276379744    0.625447456925    3.328441061505
 H    4.050226379744   -0.205432543075    2.001587061505
 C    0.782752379744    1.419677456925   -1.723078938495
 C    0.127752379744    2.301677456925   -2.778078938495
 C   -0.145247620256    0.445677456925   -1.042078938495
 C   -0.212247620256   -0.890322543075   -1.442078938495
 C   -0.948247620256    0.868677456925    0.014921061505
 C   -1.073247620256   -1.790322543075   -0.789078938495
 C   -1.809247620256   -0.024322543075    0.665921061505
 C   -1.861247620256   -1.350322543075    0.267921061505
 O   -2.708247620256   -2.205322543075    0.912921061505
 H    1.596752379744    0.859677456925   -2.169078938495
 H    1.209752379744    2.096677456925   -0.990078938495
 H   -0.636247620256    2.917677456925   -2.299078938495
 H    0.402752379744   -1.237322543075   -2.263078938495
 H   -0.939247620256    1.907677456925    0.323921061505
 H   -1.118247620256   -2.821322543075   -1.109078938495
 H   -2.437247620256    0.313677456925    1.477921061505
 H   -2.637247620256   -3.102322543075    0.571921061505
 H   -0.318077620256    1.679027456925   -3.567725938495
 H    0.895089379744    2.961677456925   -3.208889938495
