20
0 1 
 C   -0.966643911850   -2.701946952507   -0.875249044039
 C   -1.754643911850   -3.950946952507   -0.477249044039
 H   -1.206643911850   -1.889946952507   -0.189249044039
 H    0.103356088150   -2.903946952507   -0.827249044039
 H   -1.229643911850   -2.406946952507   -1.891249044039
 H   -1.452643911850   -4.751946952507   -1.156249044039
 H   -2.837024911850   -3.788136952507   -0.586542044039
 H   -1.496704911850   -4.257156952507    0.547300955961
 C    1.798356088150    1.915053047493    1.891750955961
 C    0.238356088150    0.359053047493   -0.990249044039
 C    0.883356088150    1.473053047493    0.789750955961
 C   -0.393643911850    1.839053047493    0.507750955961
 N    1.262356088150    0.546053047493   -0.162249044039
 N   -0.768643911850    1.132053047493   -0.609249044039
 H    0.222356088150   -0.316946952507   -1.838249044039
 H   -1.698643911850    1.127053047493   -1.026249044039
 H   -0.993643911850    2.545053047493    1.060750955961
 H    2.078356088150    1.032053047493    2.461750955961
 H    1.259356088150    2.589053047493    2.559750955961
 H    2.711921088150    2.406419047493    1.525748375961
