16
-1 1 
 C   -1.093170965137    1.489408428470    0.687425767695
 C    0.258829034863    1.593408428470   -1.720574232305
 S    0.457829034863    2.081408428470    0.005425767695
 H   -1.185170965137    0.418408428470    0.539425767695
 H   -1.083170965137    1.721408428470    1.743425767695
 H   -1.938170965137    1.984408428470    0.211425767695
 H    0.024829034863    0.531408428470   -1.773574232305
 H    1.210829034863    1.754408428470   -2.221574232305
 H   -0.528200965137    2.155368428470   -2.244774232305
 C    0.876829034863   -1.667591571530    1.415425767695
 C   -0.077170965137   -1.911591571530    0.222425767695
 O   -1.300170965137   -2.165591571530    0.374425767695
 O    0.416829034863   -1.858591571530   -0.922574232305
 H    1.523829034863   -0.830591571530    1.149425767695
 H    1.509829034863   -2.546591571530    1.556425767695
 H    0.373559034863   -1.441621571530    2.367085767695
