27
0 1 
 C   -1.419101146337    0.392577920588    1.540226835312
 C   -2.930101146337    0.670577920588    1.456226835312
 C   -0.776101146337   -0.128422079412    0.277226835312
 C   -0.746101146337   -1.501422079412    0.013226835312
 C   -0.176101146337    0.742577920588   -0.639773164688
 C   -0.127101146337   -1.997422079412   -1.135773164688
 C    0.452898853663    0.247577920588   -1.796773164688
 C    0.470898853663   -1.125422079412   -2.045773164688
 O    1.062898853663   -1.613422079412   -3.184773164688
 H   -0.922101146337    1.312577920588    1.832226835312
 H   -1.243101146337   -0.330422079412    2.336226835312
 H   -3.195101146337    1.129577920588    2.405226835312
 H   -1.207101146337   -2.191422079412    0.708226835312
 H   -0.179101146337    1.805577920588   -0.451773164688
 H   -0.120101146337   -3.060422079412   -1.326773164688
 H    0.921898853663    0.924577920588   -2.495773164688
 H    1.010898853663   -2.574422079412   -3.240773164688
 H   -3.516861146337   -0.249757079412    1.319486835312
 H   -3.167611146337    1.435084920588    0.701826835312
 C    2.050898853663    1.331577920588    2.911226835312
 C    1.794898853663    2.666577920588    2.218226835312
 H    2.937898853663    1.359577920588    3.540226835312
 H    1.198898853663    1.098577920588    3.549226835312
 H    2.150898853663    0.541577920588    2.167226835312
 H    1.796898853663    3.441577920588    2.984226835312
 H    0.821898853663    2.648577920588    1.735226835312
 H    2.572041853663    2.850996920588    1.461896835312
