33
0 1 
 C    1.343246733417    0.515174153641   -0.239563554130
 C    2.834246733417    0.878174153641   -0.094563554130
 C    0.588246733417    1.422174153641   -1.189563554130
 C    0.833246733417    1.356174153641   -2.567563554130
 C   -0.355753266583    2.324174153641   -0.691563554130
 C    0.131246733417    2.195174153641   -3.432563554130
 C   -1.074753266583    3.159174153641   -1.549563554130
 C   -0.811753266583    3.070174153641   -2.908563554130
 H    1.247246733417   -0.515825846359   -0.583563554130
 H    0.872246733417    0.572174153641    0.743436445870
 H    2.912246733417    1.952174153641    0.071436445870
 H    1.537246733417    0.644174153641   -2.969563554130
 H   -0.540753266583    2.377174153641    0.372436445870
 H    0.298246733417    2.141174153641   -4.498563554130
 H   -1.809753266583    3.854174153641   -1.166563554130
 H   -1.349753266583    3.708174153641   -3.589563554130
 H    3.399226733417    0.578357153641   -0.989493554130
 H    3.234696733417    0.340135953641    0.777306445870
 C    1.130246733417   -3.385825846359    0.536436445870
 C    0.079246733417   -2.632825846359    1.316436445870
 C    0.384246733417   -2.078825846359    2.569436445870
 C   -1.197753266583   -2.437825846359    0.797436445870
 C   -0.573753266583   -1.330825846359    3.253436445870
 C   -2.152753266583   -1.675825846359    1.465436445870
 C   -1.822753266583   -1.125825846359    2.702436445870
 H    2.082246733417   -2.876825846359    0.623436445870
 H    0.863246733417   -3.347825846359   -0.520563554130
 H    1.371246733417   -2.190825846359    2.975436445870
 H   -1.447753266583   -2.861825846359   -0.165563554130
 H   -0.333753266583   -0.895825846359    4.213436445870
 H   -3.129753266583   -1.513825846359    1.030436445870
 H   -2.548753266583   -0.532825846359    3.241436445870
 H    1.263976733417   -4.439916846359    0.821056445870
