27
0 1 
 C   -0.878181103841    1.412993895904    2.228080504039
 C   -2.094181103841    0.670993895904    2.747080504039
 C   -1.246181103841    2.327993895904    1.076080504039
 O   -2.099181103841    2.005993895904    0.248080504039
 N   -0.592181103841    3.473993895904    0.995080504039
 H   -0.452181103841    2.003993895904    3.040080504039
 H   -0.106181103841    0.726993895904    1.901080504039
 H   -2.835181103841    0.509993895904    1.982080504039
 H   -2.645181103841    1.440993895904    3.290080504039
 H   -0.785181103841    4.069993895904    0.203080504039
 H    0.108818896159    3.758993895904    1.673080504039
 H   -1.890380103841   -0.119266104096    3.484610504039
 C    1.217818896159   -3.470006104096    0.385080504039
 C    0.439818896159   -0.057006104096   -1.081919495961
 C    0.499818896159   -1.115006104096   -0.183919495961
 C    1.007818896159   -0.176006104096   -2.340919495961
 C    1.149818896159   -2.293006104096   -0.536919495961
 C    1.653818896159   -1.349006104096   -2.696919495961
 C    1.706818896159   -2.405006104096   -1.802919495961
 H   -0.048181103841    0.865993895904   -0.813919495961
 H    0.090818896159   -1.017006104096    0.803080504039
 H    0.956818896159    0.646993895904   -3.040919495961
 H    2.102818896159   -1.445006104096   -3.675919495961
 H    2.010818896159   -4.132006104096    0.033080504039
 H    0.276818896159   -4.017006104096    0.299080504039
 H    2.193818896159   -3.320006104096   -2.106919495961
 H    1.401076896159   -3.243629104096    1.445820504039
