32
1 1 
 C   -0.165351600110   -2.169749831599   -0.443748002761
 C   -0.932351600110   -1.824749831599   -1.717748002761
 C    1.966648399890   -2.884749831599   -1.465748002761
 N    1.283648399890   -2.096749831599   -0.649748002761
 N    1.348648399890   -3.817749831599   -2.164748002761
 N    3.270648399890   -2.743749831599   -1.580748002761
 H   -0.429351600110   -1.453749831599    0.335251997239
 H   -0.452351600110   -3.163749831599   -0.092748002761
 H   -0.801351600110   -2.564749831599   -2.504748002761
 H   -0.537351600110   -0.872749831599   -2.073748002761
 H    1.808648399890   -1.430749831599   -0.102748002761
 H    0.370648399890   -3.994749831599   -2.015748002761
 H    1.873648399890   -4.420749831599   -2.778748002761
 H    3.758648399890   -2.132749831599   -0.922748002761
 H    3.801648399890   -3.342749831599   -2.190748002761
 H   -2.007894600110   -1.720153031599   -1.512158002761
 C   -2.599351600110    3.869250168401   -0.564748002761
 C   -1.398351600110    0.847250168401    1.437251997239
 C   -0.149351600110    1.288250168401    1.871251997239
 C   -2.192351600110    1.695250168401    0.649251997239
 C   -1.751351600110    2.981250168401    0.307251997239
 C    0.307648399890    2.568250168401    1.532251997239
 C   -0.496351600110    3.411250168401    0.754251997239
 O    0.607648399890    0.455250168401    2.638251997239
 H   -1.752351600110   -0.133749831599    1.718251997239
 H   -3.162351600110    1.354250168401    0.312251997239
 H    1.280648399890    2.901250168401    1.853251997239
 H    1.437648399890    0.874250168401    2.880251997239
 H   -2.462351600110    4.901250168401   -0.242748002761
 H   -3.649351600110    3.620250168401   -0.406748002761
 H   -0.135351600110    4.396250168401    0.485251997239
 H   -2.367144600110    3.792086168401   -1.637188002761
