29
0 1 
 C   -0.833272835092   -1.954603819605   -1.996950970823
 C   -1.078272835092    0.446396180395   -1.291950970823
 C   -1.309272835092   -0.906603819605   -1.021950970823
 C   -1.514272835092    1.429396180395   -0.421950970823
 C   -2.008272835092   -1.255603819605    0.133049029177
 C   -2.237272835092    1.045396180395    0.694049029177
 C   -2.468272835092   -0.268603819605    1.008049029177
 H   -0.543272835092    0.736396180395   -2.186950970823
 H   -1.337272835092    2.474396180395   -0.635950970823
 H   -0.259272835092   -2.703603819605   -1.447950970823
 H   -0.173272835092   -1.502603819605   -2.737950970823
 H   -2.197272835092   -2.297603819605    0.358049029177
 H   -2.621272835092    1.810396180395    1.354049029177
 H   -3.015272835092   -0.535603819605    1.901049029177
 H   -1.677199835092   -2.446655819605   -2.502591970823
 C    2.354727164908    0.589396180395    0.490049029177
 C    2.878727164908   -0.570603819605   -0.357950970823
 C    1.530727164908    0.059396180395    1.660049029177
 C    3.504727164908    1.466396180395    0.990049029177
 H    1.693727164908    1.205396180395   -0.117950970823
 H    1.989727164908   -1.088603819605   -0.718950970823
 H    2.150727164908   -0.536603819605    2.330049029177
 H    1.118727164908    0.894396180395    2.223049029177
 H    0.704727164908   -0.537603819605    1.272049029177
 H    4.053727164908    1.883396180395    0.151049029177
 H    3.089727164908    2.293396180395    1.567049029177
 H    4.181727164908    0.899396180395    1.630049029177
 H    3.505367164908   -1.274357819605    0.209545029177
 H    3.385997164908   -0.230737819605   -1.272917970823
