20
0 1 
 C   -1.326037703092    0.224936391543    2.348745329162
 C   -2.756037703092    0.522936391543    2.803745329162
 C   -0.534037703092    1.332936391543    3.033745329162
 H   -1.268037703092    0.324936391543    1.268745329162
 H   -0.999037703092   -0.766063608457    2.665745329162
 H   -3.473037703092    0.135936391543    2.077745329162
 H   -2.935037703092    0.089936391543    3.788745329162
 H    0.443962296908    1.475936391543    2.570745329162
 H   -0.420037703092    1.099936391543    4.093745329162
 H   -2.792617703092    1.620406391543    2.868695329162
 H   -1.189987703092    2.207776391543    2.913825329162
 C   -0.029037703092   -0.108063608457   -1.093254670838
 C    1.303962296908   -1.559063608457   -2.965254670838
 S    1.566962296908   -0.167063608457   -1.861254670838
 H   -0.153037703092   -0.969063608457   -0.435254670838
 H   -0.107037703092    0.813936391543   -0.516254670838
 H   -0.804037703092   -0.121063608457   -1.855254670838
 H    0.377962296908   -1.428063608457   -3.524254670838
 H    1.230962296908   -2.469063608457   -2.370254670838
 H    2.161932296908   -1.641225608457   -3.648724670838
