16
-1 1 
 C    0.291419744986   -0.181026542880   -3.386263459156
 C    0.752419744986   -0.995026542880   -2.170263459156
 O    0.333419744986   -0.675026542880   -1.042263459156
 O    1.562419744986   -1.938026542880   -2.355263459156
 H    0.283419744986   -0.817026542880   -4.271263459156
 H    1.028419744986    0.605973457120   -3.559263459156
 H   -0.692550255014    0.300773457120   -3.287936459156
 C   -1.729580255014    1.429973457120    3.204736540844
 C   -0.666580255014    0.933973457120    2.228736540844
 O    0.290419744986    0.283973457120    2.681736540844
 N   -0.821580255014    1.143973457120    0.913736540844
 H   -0.241580255014    0.594973457120    0.275736540844
 H   -1.618580255014    1.644973457120    0.542736540844
 H   -1.235580255014    2.016973457120    3.975736540844
 H   -2.160580255014    0.548973457120    3.682736540844
 H   -2.543310255014    2.029753457120    2.771035340844
