25
-1 1 
 C    1.347088189927   -1.252076770735    0.141543696900
 C    2.558088189927   -0.554076770735    0.703543696900
 C    0.861088189927   -0.560076770735    2.419543696900
 C   -1.389911810073   -1.836076770735   -0.409456303100
 C   -1.007911810073   -1.167076770735    0.918543696900
 O   -1.860911810073   -0.793076770735    1.731543696900
 N    0.302088189927   -1.009076770735    1.141543696900
 H    1.117088189927   -0.913076770735   -0.862456303100
 H    1.554088189927   -2.322076770735    0.110543696900
 H    2.603088189927    0.485923229265    0.390543696900
 H    3.475088189927   -1.060076770735    0.401543696900
 H    0.582088189927   -1.243076770735    3.221543696900
 H   -0.840911810073   -1.321076770735   -1.194456303100
 H    2.422998189927   -0.593508770735    1.794503696900
 H    1.948888189927   -0.594609770735    2.259823696900
 H    0.558378189927    0.461020229265    2.694733696900
 H   -1.121221810073   -2.902546770735   -0.388323303100
 H   -2.446051810073   -1.706024770735   -0.688139303100
 C   -0.260911810073    2.105923229265   -3.028456303100
 C   -0.218911810073    1.713923229265   -1.563456303100
 O   -1.269911810073    1.799923229265   -0.882456303100
 O    0.877088189927    1.360923229265   -1.080456303100
 H   -0.118911810073    1.213923229265   -3.642456303100
 H    0.558088189927    2.798923229265   -3.236456303100
 H   -1.209041810073    2.588603229265   -3.307866303100
