23
0 1 
 C    2.353304565548    0.494531910050   -0.723488686218
 C   -0.090695434452    0.590531910050   -0.180488686218
 C    1.224304565548    0.710531910050    0.263511313782
 C   -1.154695434452    0.791531910050    0.686511313782
 C    1.453304565548    1.112531910050    1.586511313782
 C   -0.925695434452    1.149531910050    2.008511313782
 C    0.380304565548    1.313531910050    2.461511313782
 H   -0.292695434452    0.331531910050   -1.208488686218
 H   -2.166695434452    0.693531910050    0.321511313782
 H    2.610304565548    1.462531910050   -1.154488686218
 H    1.988304565548   -0.139468089950   -1.532488686218
 H    2.455304565548    1.271531910050    1.946511313782
 H   -1.754695434452    1.293531910050    2.683511313782
 H    0.554304565548    1.609531910050    3.483511313782
 H    3.261174565548    0.031623910050   -0.309388686218
 C   -0.909695434452   -2.421468089950   -2.201488686218
 C   -2.125695434452   -2.948468089950   -2.959488686218
 H   -0.110695434452   -3.147468089950   -2.102488686218
 H   -0.522695434452   -1.546468089950   -2.724488686218
 H   -1.214695434452   -2.107468089950   -1.202488686218
 H   -1.826695434452   -3.263468089950   -3.960488686218
 H   -2.847695434452   -2.136468089950   -3.039488686218
 H   -2.570646434452   -3.792588089950   -2.412238686218
