19
-1 1 
 C   -1.398557219922    0.454352826642   -0.669820060924
 C   -2.647557219922    0.054352826642   -1.425820060924
 C   -1.688557219922    0.711352826642    0.790179939076
 O   -2.807557219922    1.049352826642    1.180179939076
 N   -0.674557219922    0.543352826642    1.615179939076
 H   -0.668557219922   -0.352647173358   -0.727820060924
 H   -0.953557219922    1.348352826642   -1.104820060924
 H   -3.374557219922    0.865352826642   -1.373820060924
 H   -3.082557219922   -0.828647173358   -0.957820060924
 H   -0.808557219922    0.703352826642    2.601179939076
 H    0.253442780078    0.357352826642    1.226179939076
 H   -2.427417219922   -0.154917173358   -2.483050060924
 C    2.725442780078   -0.596647173358   -1.750820060924
 C    2.254442780078   -0.706647173358   -0.307820060924
 O    2.225442780078   -1.833647173358    0.236179939076
 O    1.897442780078    0.349352826642    0.270179939076
 H    3.548442780078    0.121352826642   -1.790820060924
 H    1.915442780078   -0.177647173358   -2.346820060924
 H    3.082302780078   -1.537527173358   -2.195110060924
