20
0 1 
 C    0.982552306377    0.196617296418   -0.934559306687
 C    1.571552306377    0.035617296418   -2.339559306687
 C   -0.498447693623    0.595617296418   -0.953559306687
 O   -1.360447693623   -0.095382703582   -1.523559306687
 N   -0.792447693623    1.742617296418   -0.331559306687
 H    1.057552306377   -0.756382703582   -0.415559306687
 H    1.557552306377    0.938617296418   -0.378559306687
 H    1.128552306377   -0.852382703582   -2.798559306687
 H   -1.759447693623    2.056617296418   -0.355559306687
 H   -0.071447693623    2.298617296418    0.102440693313
 H    2.660589306377   -0.105414703582   -2.275454306687
 H    1.301872306377    0.915356296418   -2.942330306687
 C    0.128552306377   -1.106382703582    2.222440693313
 C    0.025552306377   -1.379382703582    3.696440693313
 H    1.174552306377   -1.126382703582    1.917440693313
 H   -0.414447693623   -1.869382703582    1.664440693313
 H   -0.304447693623   -0.130382703582    1.997440693313
 H   -1.025447693623   -1.321382703582    3.960440693313
 H    0.605204306377   -0.614009703582    4.233290693313
 H    0.379949306377   -2.391737703582    3.940450693313
