23
0 1 
 C   -2.562019369718    0.460839038857   -0.216873390301
 C   -2.979019369718    1.392839038857   -1.349873390301
 H   -2.743019369718   -0.580160961143   -0.485873390301
 H   -1.498019369718    0.579839038857   -0.034873390301
 H   -3.107019369718    0.704839038857    0.694126609699
 H   -2.482019369718    1.077839038857   -2.263873390301
 H   -4.070091369718    1.352058038857   -1.483663390301
 H   -2.661481369718    2.419064038857   -1.113163390301
 C    0.731980630282   -2.466160961143   -0.875873390301
 C    0.462980630282   -1.013160961143    1.153126609699
 C    0.854980630282   -1.141160961143   -0.175873390301
 C    0.542980630282    0.224839038857    1.800126609699
 C    1.015980630282    1.346839038857    1.115126609699
 C    1.329980630282   -0.016160961143   -0.859873390301
 C    1.419980630282    1.219839038857   -0.219873390301
 H    0.083980630282   -1.871160961143    1.690126609699
 H    0.225980630282    0.318839038857    2.830126609699
 H    0.577980630282   -2.291160961143   -1.937873390301
 H   -0.161019369718   -2.974160961143   -0.511873390301
 H    1.074980630282    2.306839038857    1.610126609699
 H    1.634980630282   -0.096160961143   -1.893873390301
 H    1.787980630282    2.082839038857   -0.756873390301
 H    1.599075630282   -3.131170961143   -0.749753390301
