27
0 1 
 C    2.054083933399   -2.563149598374   -2.384795781613
 C    1.209083933399   -2.481149598374   -3.648795781613
 H    2.753083933399   -3.397149598374   -2.461795781613
 H    2.625083933399   -1.641149598374   -2.264795781613
 H    1.448083933399   -2.707149598374   -1.495795781613
 H    0.663083933399   -1.535149598374   -3.640795781613
 H    0.480143933399   -3.304948598374   -3.646655781613
 H    1.821923933399   -2.514642598374   -4.561645781613
 C    2.173083933399    1.608850401626    1.694204218387
 C    1.372083933399   -0.498149598374    0.554204218387
 C    1.168083933399    0.719850401626    1.102204218387
 C   -0.773916066601   -0.166149598374    0.351204218387
 C   -0.227916066601    0.999850401626    0.973204218387
 C   -2.064916066601   -0.460149598374   -0.005795781613
 C   -1.081916066601    2.053850401626    1.287204218387
 C   -2.682916066601    0.664850401626    0.118204218387
 C   -2.304916066601    1.921850401626    0.797204218387
 N    0.239083933399   -1.028149598374    0.134204218387
 H    2.316083933399   -0.831149598374    0.204204218387
 H    0.171083933399   -1.899149598374   -0.373795781613
 H    2.586083933399    1.142850401626    2.590204218387
 H    1.665083933399    2.525850401626    1.995204218387
 H   -2.376916066601   -1.309149598374   -0.580795781613
 H   -0.717916066601    2.984850401626    1.697204218387
 H   -3.097916066601    0.675850401626   -0.859795781613
 H   -2.821916066601    2.813850401626    0.573204218387
 H    2.975843933399    1.845345401626    0.980314218387
