30
0 1 
 C    3.909537720067    3.278329448921    1.583243860535
 C    0.026537720067    1.378329448921    1.584243860535
 C    0.928537720067    1.099329448921    2.630243860535
 C    0.375537720067    2.277329448921    0.557243860535
 C    2.188537720067    1.740329448921    2.630243860535
 C    1.627537720067    2.891329448921    0.564243860535
 C    2.539537720067    2.632329448921    1.599243860535
 H   -0.944462279933    0.897329448921    1.571243860535
 H    0.647537720067    0.404329448921    3.416243860535
 H   -0.322462279933    2.494329448921   -0.240756139465
 H    2.895537720067    1.545329448921    3.421243860535
 H    1.896537720067    3.571329448921   -0.232756139465
 H    4.139537720067    3.573329448921    2.607243860535
 H    3.833537720067    4.176329448921    0.966243860535
 H    4.696657720067    2.605289448921    1.212493860535
 C   -1.526462279933   -4.544670551079   -2.334756139465
 C   -1.792462279933   -0.431670551079   -0.994756139465
 C   -2.777462279933   -1.341670551079   -0.651756139465
 C   -0.743462279933   -0.855670551079   -1.808756139465
 C   -2.714462279933   -2.671670551079   -1.103756139465
 C   -0.678462279933   -2.189670551079   -2.255756139465
 C   -1.658462279933   -3.106670551079   -1.906756139465
 H   -1.835462279933    0.590329448921   -0.640756139465
 H   -3.600462279933   -1.023670551079   -0.027756139465
 H    0.025537720067   -0.151670551079   -2.092756139465
 H   -3.483462279933   -3.370670551079   -0.822756139465
 H    0.142537720067   -2.518670551079   -2.875756139465
 H   -0.865462279933   -4.564670551079   -3.202756139465
 H   -2.518462279933   -4.877670551079   -2.637756139465
 H   -1.189052279933   -5.203750551079   -1.521266139465
