23
0 1 
 C   -0.813411253803    2.138400011768    1.574695395290
 C    0.335588746197    0.079400011768   -1.401304604710
 C   -0.482411253803    0.787400011768   -0.504304604710
 C    1.724588746197    0.026400011768   -1.163304604710
 C    0.074588746197    1.450400011768    0.595695395290
 C    2.269588746197    0.681400011768   -0.056304604710
 C    1.448588746197    1.369400011768    0.831695395290
 H   -0.094411253803   -0.427599988232   -2.255304604710
 H   -1.547411253803    0.812400011768   -0.675304604710
 H    2.368588746197   -0.517599988232   -1.841304604710
 H    3.336588746197    0.636400011768    0.121695395290
 H   -1.463411253803    2.806400011768    1.007695395290
 H   -0.228411253803    2.746400011768    2.267695395290
 H    1.881588746197    1.850400011768    1.697695395290
 H   -1.432011253803    1.423750011768    2.137385395290
 C   -1.554411253803   -3.142599988232   -0.670304604710
 C   -2.277411253803   -2.703599988232    0.607695395290
 H   -1.777411253803   -4.187599988232   -0.895304604710
 H   -1.858411253803   -2.528599988232   -1.516304604710
 H   -0.477411253803   -3.013599988232   -0.567304604710
 H   -1.939411253803   -1.699599988232    0.863695395290
 H   -2.042981253803   -3.377059988232    1.445255395290
 H   -3.361491253803   -2.699319988232    0.421301395290
