17
0 1 
 C   -2.653394867131   -1.024193489482    0.276047205301
 O   -1.286394867131   -1.239193489482    0.540047205301
 H   -1.093394867131   -2.175193489482    0.391047205301
 H   -3.234394867131   -1.740193489482    0.857047205301
 H   -2.844394867131   -1.203193489482   -0.779952794699
 H   -2.962314867131   -0.006913489482    0.558385205301
 C    1.085605132869    0.589806510518    0.195047205301
 C    2.363605132869    0.100806510518   -0.418952794699
 C    0.796605132869    1.831806510518   -0.601952794699
 H    1.101605132869    0.807806510518    1.241047205301
 H    0.395605132869   -0.125193489482   -0.136952794699
 H    3.189605132869    0.710806510518   -0.095952794699
 H    2.530605132869   -0.956193489482   -0.227952794699
 H   -0.266394867131    2.016806510518   -0.506952794699
 H    2.183565132869    0.236566510518   -1.495592794699
 H    1.124325132869    1.550686510518   -1.613670794699
 H    1.330925132869    2.711987510518   -0.214932794699
