13
-1 1 
 C    1.875167529325   -0.832512822332   -1.489927573107
 C    1.256167529325   -0.025512822332   -0.357927573107
 O    0.242167529325    0.661487177668   -0.604927573107
 O    1.764167529325   -0.075512822332    0.772072426893
 H    1.452167529325   -0.480512822332   -2.431927573107
 H    1.621167529325   -1.885512822332   -1.366927573107
 H    2.968607529325   -0.725322822332   -1.543877573107
 C   -2.965832470675   -0.209512822332    0.523072426893
 O   -1.826832470675    0.451487177668    1.067072426893
 H   -1.115832470675    0.473487177668    0.389072426893
 H   -2.652832470675   -1.177512822332    0.131072426893
 H   -3.718342470675   -0.347432822332    1.313452426893
 H   -3.374382470675    0.388537177668   -0.304827573107
