15
-1 1 
 C    1.005577138805   -1.456073025966   -0.512627945220
 C   -0.338422861195   -1.191073025966    0.139372054780
 O   -1.326422861195   -1.007073025966   -0.598627945220
 O   -0.405422861195   -1.143073025966    1.387372054780
 H    1.693577138805   -1.767073025966    0.271372054780
 H    1.396577138805   -0.527073025966   -0.932627945220
 H    0.969007138805   -2.210633025966   -1.312192945220
 C    0.054577138805    2.329926974034   -0.800627945220
 C    0.987577138805    2.374926974034    0.392372054780
 H    0.581577138805    1.941926974034   -1.669627945220
 H   -0.791422861195    1.678926974034   -0.586627945220
 H   -0.318422861195    3.328926974034   -1.024627945220
 H    1.359577138805    1.371926974034    0.603372054780
 H    1.819737138805    3.061486974034    0.177553054780
 H    0.422997138805    2.745186974034    1.260793054780
