19
0 1 
 C    0.854852496416   -0.936190570661   -0.087114201929
 C    1.842852496416   -0.449190570661   -1.149114201929
 C    1.471852496416   -1.439190570661    1.219885798071
 H    0.178852496416   -0.121190570661    0.141885798071
 H    0.258852496416   -1.751190570661   -0.504114201929
 H    2.687852496416   -1.127190570661   -1.174114201929
 H    2.052852496416   -0.638190570661    1.667885798071
 H    2.254082496416    0.534289429339   -0.877730201929
 H    1.357142496416   -0.420410570661   -2.135651201929
 H    0.683392496416   -1.722690570661    1.932599798071
 H    2.142512496416   -2.290850570661    1.033110798071
 C   -2.201147503584    0.900809429339    0.566885798071
 C   -1.908147503584    1.861809429339   -0.567114201929
 H   -2.085147503584   -0.142190570661    0.280885798071
 H   -1.521147503584    1.099809429339    1.392885798071
 H   -3.208147503584    1.053809429339    0.936885798071
 H   -0.858147503584    1.786809429339   -0.845114201929
 H   -2.546307503584    1.587799429339   -1.420152201929
 H   -2.114177503584    2.889049429339   -0.231955201929
