18
-1 1 
 C    0.093110377933    0.837568598023    1.613178005227
 C    1.306110377933    0.343568598023    2.398178005227
 C   -0.895889622067    1.628568598023    2.477178005227
 H    0.414110377933    1.432568598023    0.758178005227
 H   -0.438889622067   -0.040431401977    1.274178005227
 H    0.931110377933   -0.231431401977    3.248178005227
 H   -1.208889622067    0.984568598023    3.301178005227
 H   -0.422889622067    2.496568598023    2.921178005227
 H    1.885670377933    1.193338598023    2.788058005227
 H    1.909990377933   -0.352221401977    1.797168005227
 H   -1.786169622067    1.965318598023    1.925808005227
 C   -0.424889622067    0.466568598023   -2.426821994773
 C   -0.095889622067   -0.767431401977   -1.586821994773
 O    0.993110377933   -1.360431401977   -1.744821994773
 O   -0.959889622067   -1.141431401977   -0.752821994773
 H   -0.303889622067    1.358568598023   -1.808821994773
 H   -1.481889622067    0.424568598023   -2.699821994773
 H    0.182250377933    0.602598598023   -3.333948994773
