24
0 1 
 C   -1.093072503461    1.560302975987   -2.454911533713
 C   -0.817072503461   -0.189697024013   -0.627911533713
 C   -0.766072503461    1.148302975987   -1.039911533713
 C   -0.530072503461   -0.547697024013    0.695088466287
 C   -0.395072503461    2.118302975987   -0.105911533713
 C   -0.168072503461    0.435302975987    1.600088466287
 C   -0.103072503461    1.766302975987    1.211088466287
 O    0.122927496539    0.092302975987    2.886088466287
 H   -1.107072503461   -0.957697024013   -1.331911533713
 H   -0.582072503461   -1.578697024013    1.016088466287
 H   -0.718072503461    2.573302975987   -2.582911533713
 H   -0.446072503461    0.943302975987   -3.100911533713
 H   -0.318072503461    3.152302975987   -0.405911533713
 H    0.187927496539    2.528302975987    1.922088466287
 H    0.330927496539    0.863302975987    3.427088466287
 H   -2.171239503461    1.595572975987   -2.670111533713
 C    2.240927496539   -2.513697024013   -0.806911533713
 C    1.046927496539   -3.224697024013   -1.434911533713
 H    3.101927496539   -2.708697024013   -1.438911533713
 H    2.029927496539   -1.445697024013   -0.795911533713
 H    2.420927496539   -2.838697024013    0.218088466287
 H    0.186927496539   -3.115697024013   -0.776911533713
 H    1.277854496539   -4.290127024013   -1.581671533713
 H    0.816591496539   -2.766917024013   -2.408241533713
