29
0 1 
 C    0.050127770955    0.082577063019   -1.546511290347
 C    0.493127770955   -0.623422936981   -2.826511290347
 C   -0.192872229045   -0.880422936981   -0.408511290347
 C    0.889127770955   -1.415422936981    0.319488709653
 C   -1.491872229045   -1.292422936981   -0.098511290347
 C    0.650127770955   -2.353422936981    1.323488709653
 C   -1.734872229045   -2.236422936981    0.923488709653
 C   -0.647872229045   -2.772422936981    1.628488709653
 H    0.823127770955    0.763577063019   -1.245511290347
 H   -0.856872229045    0.659577063019   -1.733511290347
 H    1.480127770955   -1.061422936981   -2.663511290347
 H    1.903127770955   -1.113422936981    0.096488709653
 H   -2.329872229045   -0.901422936981   -0.659511290347
 H    1.484127770955   -2.765422936981    1.877488709653
 H   -2.743872229045   -2.557422936981    1.144488709653
 H   -0.828872229045   -3.516422936981    2.383488709653
 H    0.539137770955    0.084087063019   -3.667529290347
 H   -0.214962229045   -1.442562936981   -3.020479290347
 C    0.531127770955    3.599577063019   -0.223511290347
 C   -0.514872229045    3.841577063019    0.871488709653
 C    1.653127770955    2.772577063019    0.374488709653
 H    0.067127770955    3.085577063019   -1.064511290347
 H    0.939127770955    4.545577063019   -0.557511290347
 H   -0.003872229045    3.957577063019    1.831488709653
 H    2.147127770955    3.359577063019    1.145488709653
 H    1.222127770955    1.891577063019    0.852488709653
 H   -1.246762229045    3.021677063019    0.917372909653
 H   -1.041742229045    4.787047063019    0.675273809653
 H    2.419397770955    2.415037063019   -0.329067290347
