23
0 1 
 C   -1.986891225542   -2.678559419036   -0.840526193753
 C   -1.270891225542   -3.997559419036   -1.057526193753
 H   -3.061891225542   -2.832559419036   -0.876526193753
 H   -1.747891225542   -2.289559419036    0.148473806247
 H   -1.668891225542   -1.951559419036   -1.585526193753
 H   -1.669891225542   -4.712559419036   -0.337526193753
 H   -1.439478225542   -4.380646419036   -2.074788193753
 H   -0.197020225542   -3.867750419036   -0.857650193753
 C   -0.928891225542    1.751440580964    2.165473806247
 C    0.238108774458   -0.009559419036    0.769473806247
 C   -0.055891225542    1.336440580964    1.007473806247
 C    1.089108774458   -0.370559419036   -0.268526193753
 C    0.522108774458    2.305440580964    0.181473806247
 C    1.647108774458    0.595440580964   -1.081526193753
 C    1.379108774458    1.931440580964   -0.859526193753
 H   -0.178891225542   -0.774559419036    1.409473806247
 H    1.351108774458   -1.402559419036   -0.422526193753
 H   -0.427891225542    2.562440580964    2.694473806247
 H   -1.024891225542    0.918440580964    2.861473806247
 H    0.324108774458    3.350440580964    0.357473806247
 H    2.310108774458    0.312440580964   -1.886526193753
 H    1.825108774458    2.688440580964   -1.488526193753
 H   -1.930470225542    2.092464480964    1.864570806247
