23
0 1 
 C    0.948675332963    0.556280201199   -3.542568992183
 C    0.053675332963    0.505280201199   -4.825568992183
 H    1.998675332963    0.446280201199   -3.810568992183
 H    0.809675332963    1.520280201199   -3.052568992183
 H    0.662675332963   -0.232719798801   -2.848568992183
 H    0.322675332963    1.348280201199   -5.463568992183
 H   -0.982324667037    0.666280201199   -4.521568992183
 H    0.110465332963   -0.427119798801   -5.406432992183
 C   -0.423324667037   -2.508719798801    2.118431007817
 C    0.648675332963    0.584280201199    0.130431007817
 C    0.026675332963    1.573280201199    0.832431007817
 C    0.496675332963   -0.751719798801    0.493431007817
 C   -0.275324667037   -1.080719798801    1.610431007817
 C   -0.737324667037    1.289280201199    1.921431007817
 C   -0.841324667037   -0.038719798801    2.348431007817
 H    1.260675332963    0.842280201199   -0.719568992183
 H    0.135675332963    2.598280201199    0.511431007817
 H    0.994675332963   -1.526719798801   -0.073568992183
 H   -1.219324667037    2.081280201199    2.479431007817
 H   -0.493324667037   -3.183719798801    1.267431007817
 H   -1.363324667037   -2.572719798801    2.667431007817
 H   -1.401324667037   -0.264719798801    3.241431007817
 H    0.389905332963   -2.825529798801    2.787978007817
