16
0 1 
 C   -0.943799703016    1.359825857371   -0.281356531700
 C   -1.784799703016    2.633825857371   -0.166356531700
 H   -0.305799703016    1.403825857371   -1.166356531700
 H   -0.308799703016    1.248825857371    0.597643468300
 H   -1.572799703016    0.469825857371   -0.335356531700
 H   -2.480799703016    2.519825857371    0.665643468300
 H   -2.367269703016    2.795663857371   -1.085336531700
 H   -1.134989703016    3.496657857371    0.041643468300
 C    0.757200296984   -2.051174142629   -0.234356531700
 C    1.973200296984   -1.941174142629    0.674643468300
 H    0.176200296984   -2.939174142629    0.014643468300
 H    0.118200296984   -1.184174142629   -0.086356531700
 H    1.067200296984   -2.094174142629   -1.279356531700
 H    1.634200296984   -1.961174142629    1.709643468300
 H    2.658310296984   -2.784443142629    0.502823468300
 H    2.494900296984   -0.987005142629    0.509143468300
