26
0 1 
 C   -1.376389554235   -2.101440878657   -0.401490337159
 C   -1.519389554235    0.325559121343    0.245509662841
 C   -1.046389554235   -0.952440878657    0.514509662841
 C   -1.176389554235    1.386559121343    1.076509662841
 C   -0.236389554235   -1.149440878657    1.628509662841
 C   -0.375389554235    1.181559121343    2.183509662841
 C    0.096610445765   -0.090440878657    2.467509662841
 H   -2.133389554235    0.517559121343   -0.622490337159
 H   -1.549389554235    2.375559121343    0.866509662841
 H   -0.756389554235   -2.952440878657   -0.113490337159
 H   -1.094389554235   -1.836440878657   -1.421490337159
 H    0.141610445765   -2.136440878657    1.853509662841
 H   -0.120389554235    2.010559121343    2.829509662841
 H    0.719610445765   -0.261440878657    3.335509662841
 H   -2.428919554235   -2.420630878657   -0.384352337159
 C    1.400610445765    0.812559121343   -1.802490337159
 C    2.880610445765    0.504559121343   -1.886490337159
 C    0.791610445765    0.173559121343   -3.012490337159
 H    1.249610445765    1.887559121343   -1.860490337159
 H    0.977610445765    0.423559121343   -0.878490337159
 H    3.463610445765    1.334559121343   -1.487490337159
 H    3.092610445765   -0.414440878657   -1.340490337159
 H   -0.161389554235    0.635559121343   -3.278490337159
 H    0.645610445765   -0.890440878657   -2.818490337159
 H    3.062940445765    0.355859121343   -2.961034337159
 H    1.569530445765    0.292849121343   -3.781006937159
