23
0 1 
 C   -0.375214596739    2.350071458828   -0.461141123719
 C   -1.076214596739   -0.068928541172   -0.327141123719
 C   -0.698214596739    1.106071458828    0.326858876281
 C   -1.284214596739   -1.239928541172    0.389858876281
 C   -1.108214596739   -1.240928541172    1.756858876281
 C   -0.547214596739    1.093071458828    1.709858876281
 C   -0.745214596739   -0.086928541172    2.429858876281
 H   -1.193214596739   -0.071928541172   -1.402141123719
 H   -1.572214596739   -2.150928541172   -0.115141123719
 H    0.086785403261    2.045071458828   -1.402141123719
 H    0.379785403261    2.917071458828    0.085858876281
 H   -1.279214596739   -2.148928541172    2.311858876281
 H   -0.249214596739    1.990071458828    2.231858876281
 H   -0.615214596739   -0.101928541172    3.503858876281
 H   -1.225034596739    3.009291458828   -0.691871123719
 C    1.909785403261   -0.492928541172   -2.498141123719
 C    3.129785403261   -1.406928541172   -2.451141123719
 H    1.800785403261    0.057071458828   -1.564141123719
 H    2.038785403261    0.233071458828   -3.299141123719
 H    1.008785403261   -1.075928541172   -2.693141123719
 H    4.008785403261   -0.819928541172   -2.188141123719
 H    3.270785403261   -1.791928541172   -3.460141123719
 H    3.004721403261   -2.240688541172   -1.744601123719
