18
-1 1 
 C   -0.331965606643    0.254471365996   -0.391728323342
 C    0.070034393357    0.702471365996   -1.791728323342
 C   -1.299965606643    1.199471365996    0.307271676658
 O   -2.412965606643    0.764471365996    0.593271676658
 O   -0.955965606643    2.356471365996    0.670271676658
 H   -0.788965606643   -0.733528634004   -0.479728323342
 H    0.560034393357    0.129471365996    0.216271676658
 H   -0.823965606643    0.661471365996   -2.414728323342
 H    0.765034393357   -0.043528634004   -2.180728323342
 H    0.525103393357    1.695611365996   -1.920521323342
 C    2.622034393357   -1.855528634004    0.383271676658
 C    2.190034393357   -3.302528634004    0.224271676658
 H    2.194034393357   -1.428528634004    1.288271676658
 H    3.709034393357   -1.809528634004    0.465271676658
 H    2.307034393357   -1.272528634004   -0.482728323342
 H    2.578034393357   -3.871528634004    1.054271676658
 H    1.096528393357   -3.419608634004    0.201143676658
 H    2.646235393357   -3.699348634004   -0.694647323342
