17
0 1 
 C    1.041345285411    0.155708172175   -0.510685095962
 C    0.805345285411    0.124708172175   -2.009685095962
 O    2.364345285411    0.433708172175   -0.177685095962
 H    0.402345285412    0.919708172175   -0.067685095962
 H    0.766345285411   -0.810291827825   -0.085685095962
 H   -0.270654714589    0.004708172175   -2.155685095962
 H    2.384345285411    1.384708172175    0.048314904038
 H    1.305945285411   -0.733997827825   -2.480885095962
 H    1.079985285411    1.083068172175   -2.474565095962
 C   -2.097654714589   -1.122291827825    1.107314904038
 C   -2.281654714589    0.306708172175    1.586314904038
 H   -2.910654714589   -1.753291827825    1.466314904038
 H   -2.098654714589   -1.133291827825    0.018314904038
 H   -1.145654714589   -1.521291827825    1.453314904038
 H   -1.453654714589    0.882708172175    1.175314904038
 H   -2.230064714588    0.407028172175    2.680514904038
 H   -3.198044714589    0.759118172175    1.179434904038
