21
0 1 
 C   -0.989903652435    0.922458109682   -0.606321081503
 C   -1.163903652435    2.166458109682   -1.498321081503
 C    0.371096347565    0.735458109682    0.020678918497
 C    1.429096347565   -0.071541890318   -0.323321081503
 C    1.970096347565    0.993458109682    1.519678918497
 N    0.733096347565    1.355458109682    1.195678918497
 N    2.432096347565    0.154458109682    0.600678918497
 H   -1.730903652435    0.940458109682    0.192678918497
 H   -1.190903652435    0.055458109682   -1.230321081503
 H   -0.457903652435    2.116458109682   -2.324321081503
 H    1.476096347565   -0.722541890318   -1.184321081503
 H    2.512096347565    1.340458109682    2.389678918497
 H    3.366096347565   -0.245541890318    0.579678918497
 H   -1.001223652435    3.071418109682   -0.894511081503
 H   -2.189053652435    2.213808109682   -1.894321081503
 C   -2.614903652435   -3.095541890318   -0.119321081503
 O   -1.477903652435   -2.306541890318   -0.503321081503
 H   -0.715903652435   -2.892541890318   -0.539321081503
 H   -2.377903652435   -3.656541890318    0.785678918497
 H   -3.483733652435   -2.448011890318    0.069958918497
 H   -2.841613652435   -3.800871890318   -0.932411081503
