30
0 1 
 C    2.044199314948    0.955009919948    3.163205278407
 C    0.956199314948    1.761009919948    1.043205278407
 C    0.952199314948    1.690009919948    2.436205278407
 C   -0.057800685052    2.427009919948    0.363205278407
 C   -1.089800685052    3.020009919948    1.077205278407
 C   -0.086800685052    2.292009919948    3.145205278407
 C   -1.106800685052    2.960009919948    2.466205278407
 H    1.762199314948    1.306009919948    0.484205278407
 H   -0.044800685052    2.476009919948   -0.716794721593
 H    2.444199314948    0.175009919948    2.518205278407
 H    1.598199314948    0.466009919948    4.028205278407
 H   -1.881800685052    3.533009919948    0.550205278407
 H   -0.105800685052    2.243009919948    4.225205278407
 H   -1.909800685052    3.428009919948    3.018205278407
 H    2.865002314948    1.598536919948    3.512713278407
 C   -2.515800685052   -1.771990080052   -2.828794721593
 C    0.599199314948   -1.497990080052   -0.707794721593
 C   -0.676800685052   -1.287990080052   -1.210794721593
 C    1.443199314948   -2.418990080052   -1.310794721593
 C   -1.120800685052   -1.986990080052   -2.324794721593
 C    1.003199314948   -3.122990080052   -2.426794721593
 C   -0.276800685052   -2.910990080052   -2.925794721593
 H    0.934199314948   -0.951990080052    0.162205278407
 H   -1.322800685052   -0.566990080052   -0.729794721593
 H    2.438199314948   -2.575990080052   -0.923794721593
 H    1.614199314948   -3.831990080052   -2.935794721593
 H   -2.639800685052   -2.259990080052   -3.794794721593
 H   -2.657800685052   -0.704990080052   -2.982794721593
 H   -0.608800685052   -3.460990080052   -3.792794721593
 H   -3.280054685052   -2.148360080052   -2.132905721593
