26
0 1 
 C    2.125799900291    1.552509693602   -1.024427886553
 C    1.844799900291    2.126509693602   -2.418427886553
 C    3.569799900291    1.795509693602   -0.600427886553
 H    1.474799900291    2.065509693602   -0.315427886553
 H    1.897799900291    0.490509693602   -0.979427886553
 H    2.096799900291    3.190509693602   -2.395427886553
 H    4.221799900291    1.230509693602   -1.268427886553
 H    3.805799900291    2.833509693602   -0.721427886553
 H    0.790359900291    2.000729693602   -2.705387886553
 H    2.482869900291    1.641609693602   -3.171917886553
 H    3.774009900291    1.449359693602    0.423522113447
 C   -1.079200099709   -3.236490306398    1.276572113447
 C   -1.315200099709    0.917509693602    0.172572113447
 C   -0.428200099709    0.509509693602    1.166572113447
 C   -2.128200099709   -0.022490306398   -0.455427886553
 C   -0.343200099709   -0.843490306398    1.520572113447
 C   -2.036200099709   -1.374490306398   -0.101427886553
 C   -1.135200099709   -1.790490306398    0.874572113447
 H   -1.389200099709    1.964509693602   -0.088427886553
 H    0.187799900291    1.239509693602    1.674572113447
 H   -2.857200099709    0.305509693602   -1.173427886553
 H    0.343799900291   -1.149490306398    2.296572113447
 H   -2.679200099709   -2.099490306398   -0.579427886553
 H   -0.276200099709   -3.377490306398    2.003572113447
 H   -0.838200099709   -3.832490306398    0.395572113447
 H   -2.022010099709   -3.596070306398    1.714532113447
