31
0 1 
 C   -3.395871274867   -1.787610924672    0.548124530616
 C   -4.736871274867   -1.721610924672    1.331124530616
 C   -1.804871274867   -1.675610924672    2.769124530616
 S   -2.130871274867   -2.715610924672    1.332124530616
 H   -3.591871274867   -2.215610924672   -0.433875469384
 H   -3.019871274867   -0.776610924672    0.399124530616
 H   -5.444871274867   -1.106610924672    0.773124530616
 H   -4.566871274867   -1.238610924672    2.292124530616
 H   -2.698871274867   -1.581610924672    3.384124530616
 H   -1.020871274867   -2.130610924672    3.373124530616
 H   -1.479871274867   -0.688610924672    2.439124530616
 H   -5.182571274867   -2.714220924672    1.492614530616
 C    4.498128725133    1.856389075328   -0.190875469384
 C    0.845128725133    1.659389075328   -1.178875469384
 C    2.026128725133    1.044389075328   -0.674875469384
 C    3.046128725133    2.069389075328   -0.618875469384
 C    2.452128725133    3.219389075328   -1.072875469384
 C   -0.358871274867   -0.360610924672   -1.063875469384
 C   -0.344871274867    0.973389075328   -1.366875469384
 C    0.787128725133   -1.029610924672   -0.571875469384
 C    2.006128725133   -0.352610924672   -0.404875469384
 N    1.132128725133    2.976389075328   -1.420875469384
 H   -1.267871274867   -0.926610924672   -1.218875469384
 H   -1.211871274867    1.469389075328   -1.771875469384
 H    0.731128725133   -2.087610924672   -0.358875469384
 H    2.888128725133   -0.863610924672   -0.045875469384
 H    0.492128725133    3.679389075328   -1.769875469384
 H    2.951128725133    4.179389075328   -1.160875469384
 H    4.533128725133    1.125389075328    0.616124530616
 H    4.863128725133    2.797389075328    0.205124530616
 H    5.128988725133    1.500819075328   -1.018876469384
