34
0 1 
 C    1.255499559456    4.813866919632    2.240503722064
 C    0.290499559456    2.582866919632   -1.332496277936
 C   -0.719500440544    3.270866919632   -0.641496277936
 C    1.611499559456    2.616866919632   -0.850496277936
 C   -0.420500440544    3.986866919632    0.523503722064
 C    1.903499559456    3.341866919632    0.317503722064
 C    0.901499559456    4.028866919632    1.004503722064
 H    0.052499559456    2.031866919632   -2.227496277936
 H   -1.732500440544    3.259866919632   -1.018496277936
 H    2.397499559456    2.091866919632   -1.377496277936
 H   -1.201500440544    4.525866919632    1.041503722064
 H    2.922499559456    3.370866919632    0.678503722064
 H    0.741499559456    5.757866919632    2.220503722064
 H    2.314499559456    5.069866919632    2.178503722064
 H    1.096139559456    4.278356919632    3.188047022064
 C   -2.874500440544   -0.847133080368    0.592503722064
 C   -0.348500440544   -0.447133080368    0.523503722064
 C   -1.440500440544   -1.244133080368    0.350503722064
 C    0.461499559456   -2.421133080368   -0.188496277936
 C   -0.956500440544   -2.520133080368   -0.115496277936
 C    1.272499559456   -3.468133080368   -0.609496277936
 C   -1.571500440544   -3.727133080368   -0.492496277936
 C    0.645499559456   -4.645133080368   -0.980496277936
 C   -0.763500440544   -4.779133080368   -0.934496277936
 N    0.789499559456   -1.151133080368    0.208503722064
 H   -0.380500440544    0.586866919632    0.855503722064
 H    1.725499559456   -0.764133080368    0.249503722064
 H   -2.910500440544    0.105866919632    1.119503722064
 H   -3.339500440544   -1.606133080368    1.222503722064
 H    2.348499559456   -3.366133080368   -0.640496277936
 H   -2.642500440544   -3.835133080368   -0.433496277936
 H    1.243499559456   -5.484133080368   -1.311496277936
 H   -1.214500440544   -5.717133080368   -1.224496277936
 H   -3.424290440544   -0.775983080368   -0.357586277936
