21
1 1 
 C   -1.137405148790    2.032801635133    1.407693956711
 C   -1.240405148790    3.136801635133    2.472693956711
 H   -1.769405148790    1.192801635133    1.691693956711
 H   -1.462405148790    2.424801635133    0.442693956711
 H   -0.105405148790    1.693801635133    1.313693956711
 H   -0.471405148790    3.878801635133    2.262693956711
 H   -1.078445148790    2.716971635133    3.476442956711
 H   -2.222405148790    3.629581635133    2.419362956711
 C    1.500594851210   -2.697198364867   -0.245306043289
 C    0.228594851210   -0.656198364867   -0.926306043289
 N    0.307594851210   -1.982198364867   -0.772306043289
 N   -0.850405148790   -0.105198364867   -1.464306043289
 N    1.204594851210    0.143801635133   -0.517306043289
 H   -0.442405148790   -2.541198364867   -1.171306043289
 H   -1.624405148790   -0.687198364867   -1.771306043289
 H   -0.923405148790    0.896801635133   -1.520306043289
 H    1.974594851210   -0.232198364867    0.023693956711
 H    1.179594851210    1.128801635133   -0.722306043289
 H    2.359594851210   -2.044198364867   -0.132306043289
 H    1.792594851210   -3.436198364867   -0.995306043289
 H    1.321254851210   -3.241640364867    0.693533956711
