22
1 1 
 C    0.306979451596   -1.136845758141    3.379810772971
 C    0.088979451596    0.903154241859    1.997810772971
 N    0.546979451596    1.663154241859    1.023810772971
 N    0.721979451596   -0.212845758141    2.318810772971
 N   -1.000020548404    1.261154241859    2.645810772971
 H    1.346979451596    1.321154241859    0.502810772971
 H    0.058979451596    2.504154241859    0.755810772971
 H    1.486979451596   -0.489845758141    1.702810772971
 H   -1.446020548404    0.618154241859    3.287810772971
 H   -1.482020548404    2.141154241859    2.445810772971
 H   -0.044020548404   -2.061845758141    2.915810772971
 H   -0.499020548404   -0.737845758141    3.994810772971
 H    1.149879451596   -1.372072758141    4.046287772971
 C   -1.470020548404   -0.694845758141   -3.459189227029
 C   -0.080020548404   -0.659845758141   -2.860189227029
 O    0.828979451596   -1.364845758141   -3.299189227029
 N    0.103979451596    0.169154241859   -1.852189227029
 H    0.952979451596    0.021154241859   -1.314189227029
 H   -0.699020548404    0.655154241859   -1.463189227029
 H   -1.649020548404    0.297154241859   -3.870189227029
 H   -2.194020548404   -0.881845758141   -2.664189227029
 H   -1.579150548404   -1.465227758141   -4.236751227029
