37
0 1 
 C    0.848789844067   -1.601598204150   -0.650180676751
 C    1.844789844067   -2.749598204150   -0.838180676751
 C    0.527789844067   -1.299598204150    0.793819323249
 C   -0.581210155933   -1.672598204150    1.448819323249
 C    1.314789844067   -0.564598204150    1.736819323249
 C    0.602789844067   -0.528598204150    2.946819323249
 C    2.525789844067    0.124401795850    1.653819323249
 C    1.056789844067    0.142401795850    4.061819323249
 C    3.003789844067    0.750401795850    2.772819323249
 C    2.273789844067    0.762401795850    3.955819323249
 N   -0.546210155933   -1.215598204150    2.730819323249
 H    1.228789844067   -0.695598204150   -1.123180676751
 H   -0.081210155933   -1.837598204150   -1.159180676751
 H    1.766789844067   -3.074598204150   -1.878180676751
 H   -1.402210155933   -2.232598204150    1.008819323249
 H   -1.315210155933   -1.316598204150    3.383819323249
 H    3.075789844067    0.149401795850    0.726819323249
 H    0.467789844067    0.228401795850    4.960819323249
 H    3.952789844067    1.264401795850    2.729819323249
 H    2.669789844067    1.297401795850    4.808819323249
 H    1.582540844067   -3.593619204150   -0.183310676751
 H    2.874301944067   -2.379787204150   -0.722660276751
 C   -1.087210155933    2.206401795850   -4.995180676751
 C   -2.383210155933    0.433401795850   -1.290180676751
 C   -3.189210155933    0.301401795850   -2.410180676751
 C   -1.171210155933    1.101401795850   -1.364180676751
 C   -2.754210155933    0.850401795850   -3.623180676751
 C   -0.753210155933    1.673401795850   -2.550180676751
 C   -1.552210155933    1.582401795850   -3.690180676751
 H   -2.701210155933    0.009401795850   -0.347180676751
 H   -4.134210155933   -0.219598204150   -2.345180676751
 H   -0.552210155933    1.185401795850   -0.481180676751
 H   -3.373210155933    0.755401795850   -4.503180676751
 H    0.189789844067    2.201401795850   -2.584180676751
 H   -0.334210155933    2.964401795850   -4.778180676751
 H   -1.934210155933    2.711401795850   -5.453180676751
 H   -0.671232155933    1.471817795850   -5.700409676751
