22
0 1 
 C   -1.243081113980   -0.139626934942    1.311310337195
 C   -2.757081113980   -0.045626934942    1.491310337195
 C   -0.462081113980    0.020373065058    2.616310337195
 H   -1.014081113980   -1.109626934942    0.864310337195
 H   -0.915081113980    0.639373065058    0.623310337195
 H   -2.976081113980    0.923373065058    1.950310337195
 H   -0.400081113980    1.080373065058    2.867310337195
 H   -0.963081113980   -0.498626934942    3.432310337195
 H   -3.107271113980   -0.857462934942    2.145749337195
 H   -3.268181113980   -0.069482934942    0.517549637195
 H    0.547168886020   -0.404651934942    2.512575337195
 C    1.114918886020    0.249373065058   -1.422689662805
 C    2.003918886020    1.133373065058   -2.289689662805
 C    1.338918886020   -1.214626934942   -1.707689662805
 H    1.300918886020    0.477373065058   -0.379689662805
 H    0.067918886020    0.460373065058   -1.644689662805
 H    2.103918886020    0.681373065058   -3.271689662805
 H    2.993918886020    1.212373065058   -1.845689662805
 H    0.617918886020   -1.798626934942   -1.129689662805
 H    1.151918886020   -1.385626934942   -2.769689662805
 H    1.555648886020    2.127357065058   -2.434780662805
 H    2.357948886020   -1.516421934942   -1.423957662805
