26
0 1 
 C    0.311070686348    1.394672136836   -0.940133379053
 C    0.053070686348    2.686672136836   -1.703133379053
 C    2.403070686348    0.320672136836   -0.257133379053
 N    1.700070686348    0.949672136836   -1.163133379053
 N    1.837070686348   -0.133327863164    0.866866620947
 N    3.680070686348    0.126672136836   -0.520133379053
 H    0.119070686348    1.584672136836    0.117866620947
 H   -0.380929313652    0.633672136836   -1.300133379053
 H   -0.983929313652    2.989672136836   -1.555133379053
 H    0.202070686348    2.484672136836   -2.763133379053
 H    2.182070686348    1.287672136836   -1.999133379053
 H    0.826070686348   -0.056327863164    1.019866620947
 H    2.390070686348   -0.619327863164    1.549866620947
 H    4.073070686348    0.498672136836   -1.392133379053
 H    4.274070686348   -0.356327863164    0.130866620947
 H    0.722130686348    3.496512136836   -1.376783379053
 C   -1.709929313652   -1.690327863164   -0.094133379053
 C   -2.888929313652   -1.323327863164   -1.018133379053
 C   -1.807929313652   -0.986327863164    1.246866620947
 O   -2.887929313652   -1.010327863164    1.872866620947
 O   -0.790929313652   -0.370327863164    1.659866620947
 H   -1.700929313652   -2.764327863164    0.060866620947
 H   -0.768929313652   -1.433327863164   -0.585133379053
 H   -2.808929313652   -0.268327863164   -1.288133379053
 H   -3.829929313652   -1.498327863164   -0.494133379053
 H   -2.871559313652   -1.956777863164   -1.917263379053
