26
-1 1 
 C    0.604783275624   -2.258738582466   -1.226978668513
 C   -0.228216724376   -3.413738582466   -0.660978668513
 C    2.100783275624   -2.463738582466   -1.013978668513
 O    2.493783275624   -3.386738582466   -0.265978668513
 O    2.880783275624   -1.681738582466   -1.587978668513
 H    0.393783275624   -2.143738582466   -2.291978668513
 H    0.306783275624   -1.336738582466   -0.728978668513
 H   -1.277216724376   -3.218738582466   -0.884978668513
 H   -0.078799724376   -3.488822582466    0.426236331487
 H    0.043492275624   -4.356095582466   -1.159112668513
 C   -0.800216724376    1.097261417534    3.476021331487
 C   -1.462216724376    0.824261417534   -0.261978668513
 C   -1.322216724376    0.492261417534    1.082021331487
 C   -1.194216724376    2.125261417534   -0.681978668513
 C   -0.931216724376    1.450261417534    2.017021331487
 C   -0.796216724376    3.081261417534    0.238021331487
 C   -0.667216724376    2.745261417534    1.580021331487
 O   -1.303216724376    2.476261417534   -1.995978668513
 H   -1.773216724376    0.075261417534   -0.975978668513
 H   -1.531216724376   -0.517738582466    1.406021331487
 H   -1.588216724376    1.735261417534   -2.538978668513
 H   -0.587216724376    4.082261417534   -0.101978668513
 H   -0.061216724376    1.752261417534    3.938021331487
 H   -0.426216724376    0.076261417534    3.554021331487
 H   -0.367216724376    3.498261417534    2.294021331487
 H   -1.752342724376    1.170113417534    4.022051331487
