19
1 1 
 C    0.064031803096    1.231158398835    1.856536157867
 C   -0.201968196904    2.561158398835    2.548536157867
 H    0.842031803096    0.693158398835    2.395536157867
 H   -0.835968196904    0.622158398835    1.867536157867
 H    0.389031803096    1.410158398835    0.831536157867
 H   -0.564968196904    2.347158398835    3.552536157867
 H    0.736379803096    3.131358398835    2.614686157867
 H   -0.978504196904    3.126628398835    2.012596157867
 C    0.075031803096   -1.258841601165   -0.847463842133
 C    1.340031803096   -1.343841601165   -1.682463842133
 N   -1.124968196904   -1.112841601165   -1.711463842133
 H    0.002031803096   -2.190841601165   -0.275463842133
 H    0.160031803096   -0.438841601165   -0.129463842133
 H    1.226031803096   -2.128841601165   -2.433463842133
 H    2.174031803096   -1.629841601165   -1.058463842133
 H   -1.073968196904   -1.721841601165   -2.523463842133
 H   -1.965968196904   -1.382841601165   -1.212463842133
 H   -1.244968196904   -0.152841601165   -2.009463842133
 H    1.558941803096   -0.387281601165   -2.179527842133
