21
-1 1 
 C    2.201907253739    0.716607341903    0.099297471509
 C    2.864907253739   -0.590392658097   -0.346702528491
 C    2.962907253739    1.984607341903   -0.172702528491
 H    1.238907253739    0.782607341903   -0.392702528491
 H    2.029907253739    0.635607341903    1.176297471509
 H    2.735907253739   -0.685392658097   -1.415702528491
 H    2.294907253739   -1.396392658097    0.114297471509
 H    3.981907253739    1.910607341903    0.219297471509
 H    3.002907253739    2.169607341903   -1.251702528491
 H    3.930097253739   -0.675262658097   -0.085619528491
 H    2.406787253739    2.775847341903    0.351391471509
 C   -1.203092746261   -0.397392658097    1.076297471509
 C   -2.394092746261   -0.919392658097    1.819297471509
 C   -1.434092746261   -0.293392658097   -0.412702528491
 O   -1.902092746261   -1.271392658097   -1.047702528491
 O   -1.121092746261    0.781607341903   -0.971702528491
 H   -0.939092746261    0.580607341903    1.485297471509
 H   -0.358092746261   -1.059392658097    1.258297471509
 H   -2.168092746261   -0.943392658097    2.884297471509
 H   -2.569092746261   -1.948392658097    1.502297471509
 H   -3.308762746261   -0.334492658097    1.642451471509
