18
-1 1 
 C    0.853438334204   -2.581359981919    1.180463569740
 C    0.983438334204   -3.750359981919    0.227463569740
 H    0.814438334204   -2.931359981919    2.212463569740
 H    1.713438334204   -1.919359981919    1.067463569740
 H   -0.059561665796   -2.025359981919    0.959463569740
 H    1.014438334204   -3.372359981919   -0.796536430260
 H    0.122508334204   -4.424489981919    0.347225569740
 H    1.905208334204   -4.320339981919    0.415797569740
 C    0.446438334204    0.680640018081   -0.606536430260
 C    1.407438334204    1.787640018081   -1.013536430260
 C   -0.887561665796    1.195640018081   -0.089536430260
 O   -1.118561665796    2.448640018081   -0.093536430260
 O   -1.716561665796    0.351640018081    0.349463569740
 H    0.273438334204    0.045640018081   -1.478536430260
 H    0.908438334204    0.047640018081    0.146463569740
 H    1.319438334204    2.635640018081   -0.336536430260
 H    1.147438334204    2.120640018081   -2.019536430260
 H    2.459118334204    1.466270018081   -0.987403430260
