19
0 1 
 C    0.260266090229   -1.458028348811    1.501665107731
 C    0.656266090229   -1.870028348811    2.910665107731
 H    1.150266090229   -1.397028348811    0.875665107731
 H   -0.411733909771   -2.205028348811    1.074665107731
 H   -0.245733909771   -0.494028348811    1.528665107731
 H    1.179266090229   -2.819028348811    2.826665107731
 H    1.321336090229   -1.119858348811    3.363344107731
 H   -0.241097909771   -2.022468348811    3.528322107731
 C   -0.386733909771    0.579971651189   -1.540334892269
 C   -1.492733909771    1.586971651189   -1.872334892269
 C    0.939266090229    1.209971651189   -1.112334892269
 H   -0.749733909771   -0.023028348811   -0.708334892269
 H   -0.230733909771   -0.103028348811   -2.372334892269
 H   -1.660733909771    2.231971651189   -1.006334892269
 H    0.737266090229    2.076971651189   -0.488334892269
 H    1.476266090229    0.487971651189   -0.499334892269
 H   -2.426587909771    1.060741651189   -2.119310892269
 H   -1.200831909771    2.238691651189   -2.709024892269
 H    1.584616090229    1.505401651189   -1.952720892269
