21
0 1 
 C    2.655010518921   -0.493971157515   -0.882463722280
 C    1.440010518921   -0.042971157515   -1.660463722280
 C   -0.670989481079    0.492028842485   -2.029463722280
 C    1.304010518921    0.262028842485   -2.977463722280
 N    0.187010518921    0.113028842485   -1.085463722280
 N   -0.016989481079    0.603028842485   -3.182463722280
 H   -1.716989481079    0.730028842485   -1.874463722280
 H    2.617010518921   -1.576971157515   -0.775463722280
 H    2.555010518921   -0.065971157515    0.115536277720
 H   -0.430989481079    0.900028842485   -4.060463722280
 H    2.089010518921    0.232028842485   -3.723463722280
 H    3.633200518921   -0.194131157515   -1.286493722280
 C   -1.576989481079   -1.441971157515    3.357536277720
 C   -1.136989481079   -0.138971157515    2.767536277720
 O   -0.715989481079    0.761028842485    3.487536277720
 N   -1.191989481079   -0.029971157515    1.445536277720
 H   -0.760989481079    0.771028842485    1.009536277720
 H   -1.395989481079   -0.831971157515    0.875536277720
 H   -1.735989481079   -1.338971157515    4.419536277720
 H   -0.774989481079   -2.157971157515    3.227536277720
 H   -2.496539481079   -1.839081157515    2.902866277720
