23
0 1 
 C    2.325221880271    1.049160953454   -0.217007695651
 C    3.712221880271    1.669160953454   -0.303007695651
 H    2.317221880271    0.216160953454    0.483992304349
 H    1.620221880271    1.802160953454    0.133992304349
 H    1.992221880271    0.704160953454   -1.194007695651
 H    3.650221880271    2.531160953454   -0.968007695651
 H    4.444044880271    0.967919753454   -0.730437695651
 H    4.039198880271    2.023266953454    0.685776804349
 C    0.048221880271   -2.617839046546    0.481992304349
 C   -1.055778119729    0.992160953454    0.940992304349
 C   -1.758778119729    1.210160953454   -0.223007695651
 C   -0.474778119729   -0.252839046546    1.154992304349
 C   -0.557778119729   -1.275839046546    0.219992304349
 C   -1.893778119729    0.175160953454   -1.125007695651
 C   -1.309778119729   -1.057839046546   -0.912007695651
 H   -0.961778119729    1.773160953454    1.681992304349
 H   -2.239778119729    2.160160953454   -0.408007695651
 H    0.044221880271   -0.428839046546    2.080992304349
 H   -2.503778119729    0.296160953454   -2.001007695651
 H   -0.698778119729   -3.356839046546    0.293992304349
 H    0.357221880271   -2.685839046546    1.525992304349
 H   -1.469778119729   -1.848839046546   -1.628007695651
 H    0.899441880271   -2.861454046546   -0.170752695651
