19
0 1 
 C   -0.375882105339   -1.649745181655   -1.315172861292
 C   -0.352882105339   -3.053745181655   -1.915172861292
 H   -1.402882105339   -1.358745181655   -1.082172861292
 H    0.186117894661   -1.615745181655   -0.388172861292
 H    0.052117894661   -0.922745181655   -2.006172861292
 H    0.665117894661   -3.283745181655   -2.233172861292
 H   -1.014822105339   -3.099545181655   -2.792512861292
 H   -0.637362105339   -3.809745181655   -1.168492861292
 C    0.369117894661    1.114254818345    0.857827138708
 C   -0.417882105339    1.210254818345    2.165827138708
 C    0.803117894661    2.455254818345    0.268827138708
 H    1.253117894661    0.496254818345    1.017827138708
 H   -0.264882105339    0.621254818345    0.121827138708
 H   -1.321882105339    1.796254818345    1.997827138708
 H    1.445117894661    2.978254818345    0.975827138708
 H    0.191107894661    1.708924818345    2.934239138708
 H   -0.758432105339    0.209574818345    2.470226138708
 H    1.381747894661    2.291274818345   -0.652202861292
 H   -0.078872105339    3.080294818345    0.065287138708
