19
0 1 
 C    1.741713156475    1.304221552390    0.847170238558
 C    2.520713156475    2.568221552390    0.491170238558
 H    2.098713156475    0.890221552390    1.790170238558
 H    0.686713156475    1.555221552390    0.960170238558
 H    1.851713156475    0.559221552390    0.058170238558
 H    2.529713156475    3.236221552390    1.348170238558
 H    1.969713156475    3.070221552390   -0.302829761442
 H    3.546425156475    2.381402552390    0.140440238558
 C   -1.078286843525   -0.905778447610   -0.595829761442
 C   -2.460286843525   -0.647778447610   -0.012829761442
 C   -0.788286843525   -2.389778447610   -0.761829761442
 H   -1.020286843525   -0.422778447610   -1.572829761442
 H   -0.322286843525   -0.458778447610    0.047170238558
 H   -3.204286843525   -1.077778447610   -0.687829761442
 H   -2.618286843525    0.430221552390    0.003170238558
 H   -0.822286843525   -2.885778447610    0.209170238558
 H   -1.532286843525   -2.839778447610   -1.422829761442
 H   -2.614013843525   -1.060830447610    0.995017238558
 H    0.217951156475   -2.532907447610   -1.182539761442
