19
-1 1 
 C   -1.514469994477   -1.146130568484    1.443164835429
 C   -0.866469994477    0.172869431516    1.733164835429
 C    0.435530005523    1.918869431516    1.430164835429
 C   -1.082469994477    1.039869431516    2.759164835429
 N    0.076530005523    0.753869431516    0.907164835429
 N   -0.254469994477    2.119869431516    2.552164835429
 H    1.143530005523    2.607869431516    0.989164835429
 H   -1.724469994477   -1.198130568484    0.375164835429
 H   -2.460469994477   -1.190130568484    1.978164835429
 H   -0.220469994477    2.952869431516    3.130164835429
 H   -1.785469994477    0.900869431516    3.569164835429
 H   -0.912681994477   -2.016741568484    1.742977835429
 C    1.249530005523   -0.037130568484   -3.329835164571
 C    0.717530005523   -1.175130568484   -2.470835164571
 O    0.552530005523   -0.979130568484   -1.259835164571
 O    0.509530005523   -2.290130568484   -3.012835164571
 H    0.705530005523    0.006869431516   -4.275835164571
 H    2.293530005523   -0.258130568484   -3.561835164571
 H    1.208671005523    0.944910431516   -2.835947164571
