26
0 1 
 C   -0.044414811875   -3.961700253370   -0.868024139297
 C    1.466585188125   -4.098700253370   -1.146024139297
 H   -0.527414811875   -4.926700253370   -1.018024139297
 H   -0.196414811875   -3.647700253370    0.163975860703
 H   -0.496414811875   -3.219700253370   -1.526024139297
 H    1.920585188125   -3.134700253370   -0.924024139297
 H    1.674435188125   -4.340605253370   -2.198774139297
 H    1.896255188125   -4.809395253370   -0.424714139297
 C    0.853585188125   -0.437700253370   -0.450024139297
 C    2.269585188125    0.018299746630   -0.882024139297
 C   -0.010414811875    0.655299746630    0.069975860703
 C   -1.125414811875    1.116299746630   -0.648024139297
 C    0.205585188125    1.139299746630    1.371975860703
 C   -1.966414811875    2.133299746630   -0.086024139297
 C   -0.589414811875    2.138299746630    1.906975860703
 C   -1.693414811875    2.640299746630    1.206975860703
 H    0.358585188125   -0.894700253370   -1.308024139297
 H    0.940585188125   -1.210700253370    0.313975860703
 H    2.756585188125   -0.815700253370   -1.389024139297
 H   -1.348414811875    0.719299746630   -1.629024139297
 H    1.014585188125    0.743299746630    1.959975860703
 H   -2.827414811875    2.492299746630   -0.631024139297
 H   -0.375414811875    2.509299746630    2.900975860703
 H   -2.324414811875    3.397299746630    1.650975860703
 H    2.868225188125    0.299967746630   -0.003224139297
 H    2.216755188125    0.847595046630   -1.602774139297
