20
0 1 
 C   -1.923865431386    0.757897629522    0.469122912370
 C    0.020134568614    1.911897629522    1.484122912370
 N    0.789134568614    0.840897629522    1.388122912370
 N   -1.243865431386    1.898897629522    1.078122912370
 N    0.548134568614    3.030897629522    1.943122912370
 H    0.482134568614    0.036897629522    0.844122912370
 H    1.761134568614    0.914897629522    1.635122912370
 H   -1.758865431386    2.765897629522    1.135122912370
 H    0.009134568614    3.879897629522    1.965122912370
 H    1.499134568614    3.049897629522    2.324122912370
 H   -1.232865431386    0.167897629522   -0.131877087630
 H   -2.692865431386    1.132897629522   -0.210877087630
 H   -2.408955431386    0.109916629522    1.213982912370
 C   -0.677865431386   -3.047102370478   -1.655877087630
 C    0.498134568614   -2.081102370478   -1.579877087630
 O    0.722134568614   -1.449102370478   -0.532877087630
 O    1.216134568614   -1.903102370478   -2.594877087630
 H   -0.399865431386   -3.923102370478   -2.239877087630
 H   -1.442865431386   -2.521102370478   -2.225877087630
 H   -1.067355431386   -3.320241170478   -0.664067087630
