30
0 1 
 C    2.026570367413   -1.871491101915    1.430024743712
 C    3.275570367413   -1.001491101915    1.729024743712
 H    2.149570367413   -2.376491101915    0.471024743712
 H    1.895570367413   -2.618491101915    2.213024743712
 H    1.140570367413   -1.242491101915    1.388024743712
 H    4.161570367413   -1.636491101915    1.752024743712
 H    3.398680367413   -0.249191101915    0.935964743712
 H    3.154313367413   -0.518591101915    2.709914743712
 C   -1.617429632587   -0.922491101915    1.748024743712
 C   -3.152429632587   -0.922491101915    1.978024743712
 C   -0.988429632587    0.172508898085    0.902024743712
 C   -0.628429632587    1.414508898085    1.317024743712
 C   -0.505429632587    0.050508898085   -0.463975256288
 C    0.170570367413    1.264508898085   -0.800975256288
 C   -0.549429632587   -0.968491101915   -1.432975256288
 C    0.787570367413    1.487508898085   -2.051975256288
 C    0.057570367413   -0.746491101915   -2.681975256288
 C    0.722570367413    0.460508898085   -2.989975256288
 N    0.065570367413    2.068508898085    0.315024743712
 H   -1.042429632587   -0.974491101915    2.679024743712
 H   -1.471429632587   -1.854491101915    1.203024743712
 H   -3.411429632587   -0.133491101915    2.683024743712
 H   -0.889429632587    1.741508898085    2.319024743712
 H    0.445570367413    3.004508898085    0.392024743712
 H   -1.022429632587   -1.925491101915   -1.233975256288
 H    1.287570367413    2.428508898085   -2.254975256288
 H    0.008570367413   -1.533491101915   -3.422975256288
 H    1.182570367413    0.583508898085   -3.957975256288
 H   -3.418605632587   -1.911991101915    2.378044743712
 H   -3.703369632587   -0.676191101915    1.058354743712
