27
0 1 
 C    2.936503728559    1.529034980773    1.583445831977
 C    0.759503728559   -1.093965019227   -0.064554168023
 C    1.161503728559    0.268034980773    0.098445831977
 C    2.246503728559    0.293034980773    1.066445831977
 C    2.455503728559   -1.005965019227    1.441445831977
 C   -0.907496271441   -0.482965019227   -1.679554168023
 C   -0.266496271441   -1.479965019227   -0.930554168023
 C   -0.535496271441    0.871034980773   -1.548554168023
 C    0.487503728559    1.255034980773   -0.658554168023
 N    1.560503728559   -1.849965019227    0.766445831977
 H   -1.697496271441   -0.754965019227   -2.365554168023
 H   -0.530496271441   -2.529965019227   -1.000554168023
 H   -1.034496271441    1.633034980773   -2.131554168023
 H    0.754503728559    2.301034980773   -0.581554168023
 H    1.495503728559   -2.858965019227    0.858445831977
 H    3.227503728559   -1.233965019227    2.173445831977
 H    2.857503728559    2.292034980773    0.800445831977
 H    3.987503728559    1.286034980773    1.728445831977
 H    2.548313728559    1.891434980773    2.546755831977
 C   -3.710496271441    0.884034980773   -0.357554168023
 C   -5.180496271441    0.582034980773    0.063445831977
 H   -3.060496271441    0.871034980773    0.518445831977
 H   -3.365496271441    0.129034980773   -1.062554168023
 H   -3.650496271441    1.865034980773   -0.830554168023
 H   -5.240496271441   -0.420965019227    0.492445831977
 H   -5.564756271441    1.325634980773    0.777165831977
 H   -5.818846271441    0.626834980773   -0.831264168023
