24
0 1 
 C    2.488593910182    0.055571129503   -3.020647598167
 C    0.825593910182   -0.292428870497    0.928352401833
 C    0.734593910182   -1.337428870497    0.044352401833
 C    1.455593910182    0.877571129503    0.533352401833
 C    1.296593910182   -1.231428870497   -1.218647598167
 C    2.006593910182    1.004571129503   -0.734647598167
 C    1.929593910182   -0.047428870497   -1.625647598167
 H    0.406593910182   -0.377428870497    1.922352401833
 H    0.254593910182   -2.256428870497    0.329352401833
 H    1.528593910182    1.693571129503    1.234352401833
 H    1.230593910182   -2.068428870497   -1.900647598167
 H    2.498593910182    1.923571129503   -1.018647598167
 H    2.476593910182    1.096571129503   -3.338647598167
 H    1.829593910182   -0.494428870497   -3.694647598167
 H    3.507033910182   -0.347034870497   -3.124007598167
 C   -2.729406089818    0.471571129503    1.164352401833
 C   -4.193406089818    0.907571129503    1.214352401833
 O   -2.404406089818   -0.450428870497    2.191352401833
 H   -2.523406089818    0.006571129503    0.198352401833
 H   -2.092406089818    1.350571129503    1.264352401833
 H   -4.341406089818    1.431571129503    2.159352401833
 H   -2.763406089818   -1.306428870497    1.903352401833
 H   -4.834686089818    0.013988129503    1.197832401833
 H   -4.433966089818    1.622742329503    0.413942401833
