22
-1 1 
 C    1.100971076794    1.222187134230   -3.201268693865
 C    1.458971076794    0.516187134230   -1.917268693865
 O    1.070971076794    1.098187134230   -0.896268693865
 O    2.106971076794   -0.563812865770   -1.942268693865
 H    1.574971076794    2.206187134230   -3.209268693865
 H    0.018971076794    1.368187134230   -3.239268693865
 H    1.427801076794    0.672196134230   -4.096088693865
 C   -1.862028923206   -0.205812865770   -0.296268693865
 C   -2.171028923206   -1.630812865770   -0.780268693865
 C   -1.078028923206   -0.151812865770    0.992731306135
 C   -1.506028923206   -0.168812865770    2.281731306135
 C    0.690971076794   -0.001812865770    2.304731306135
 N    0.290971076794   -0.071812865770    1.053731306135
 N   -0.383028923206   -0.083812865770    3.080731306134
 H   -1.350028923206    0.343187134230   -1.085268693865
 H   -2.811028923206    0.302187134230   -0.121268693865
 H   -2.598028923206   -2.176812865770    0.059731306135
 H   -2.535028923206   -0.238812865770    2.611731306135
 H    1.719971076794    0.063187134230    2.645731306135
 H   -0.368028923206   -0.105812865770    4.093731306135
 H   -1.244968923206   -2.111666865770   -1.128398693865
 H   -2.910968923206   -1.631530865770   -1.594198693865
