24
0 1 
 C   -1.288667453066   -1.701368637437   -1.980702467248
 C   -2.205667453066   -2.345368637437   -3.015702467248
 H   -1.366667453066   -2.234368637437   -1.031702467248
 H   -0.254667453066   -1.751368637437   -2.321702467248
 H   -1.568667453066   -0.658368637437   -1.825702467248
 H   -2.122667453066   -1.754368637437   -3.927702467248
 H   -3.247747453066   -2.296363637437   -2.666902467248
 H   -1.891907453066   -3.370467637437   -3.262122467248
 C   -1.138667453066    1.489631362563    2.926297532752
 C    0.458332546934    1.317631362563   -0.505702467248
 C   -0.296667453066    1.724631362563    0.585297532752
 C    1.226332546934    0.167631362563   -0.366702467248
 C   -0.313667453066    0.976631362563    1.770297532752
 C    1.247332546934   -0.584368637437    0.818297532752
 C    0.465332546934   -0.171368637437    1.900297532752
 O    2.021332546934   -0.275368637437   -1.363702467248
 H    0.432332546934    1.882631362563   -1.419702467248
 H   -0.903667453066    2.619631362563    0.512297532752
 H    2.490332546934   -1.070368637437   -1.092702467248
 H    1.856332546934   -1.474368637437    0.907297532752
 H   -1.474667453066    0.663631362563    3.555297532752
 H   -2.020667453066    1.980631362563    2.516297532752
 H    0.462332546934   -0.738368637437    2.820297532752
 H   -0.489927453066    2.169401362563    3.498177532752
