20
0 1 
 C    0.366340063532    0.280717058176    2.040836569270
 C    1.356340063532   -0.854282941824    1.803836569270
 C    0.682340063532    1.063717058176    3.258836569270
 H    0.336340063532    0.954717058176    1.194836569270
 H   -0.635659936468   -0.138282941824    2.148836569270
 H    0.937340063532   -1.445282941824    0.986836569270
 H    1.736340063532    1.322717058176    3.305836569270
 H    0.092340063532    1.980717058176    3.261836569270
 H    0.404340063532    0.485717058176    4.137836569270
 H    2.348630063532   -0.498572941824    1.489468569270
 H    1.437500063532   -1.523692941824    2.672916569270
 C   -1.893659936468    0.360717058176   -2.197163430730
 C   -0.539659936468   -0.093282941824   -1.729163430730
 O    0.243340063532    0.689717058176   -1.219163430730
 N   -0.238659936468   -1.356282941824   -1.916163430730
 H   -2.633659936468   -0.420282941824   -2.020163430730
 H   -1.815659936468    0.506717058176   -3.276163430730
 H    0.690340063532   -1.666282941824   -1.678163430730
 H   -0.895659936468   -1.980282941824   -2.360163430730
 H   -2.211529936468    1.300017058176   -1.721068430730
