20
0 1 
 C   -1.371738463485   -1.799014055812   -0.411404777742
 C   -2.565738463485   -2.510014055812   -1.039404777742
 H   -0.510738463485   -1.994014055812   -1.043404777742
 H   -1.582738463485   -0.731014055812   -0.400404777742
 H   -1.191738463485   -2.124014055812    0.613595222258
 H   -3.425738463485   -2.401014055812   -0.381404777742
 H   -2.334811463485   -3.575444055812   -1.186164777742
 H   -2.796074463485   -2.052234055812   -2.012734777742
 C    1.598261536515    0.257985944188    0.821595222258
 C    2.009261536515   -0.447014055812   -0.441404777742
 C    0.362261536515    2.202985944188   -0.534404777742
 S   -0.002738463485    1.080985944188    0.801595222258
 H    1.585261536515   -0.495014055812    1.601595222258
 H    2.351261536515    1.002985944188    1.083595222258
 H    1.930261536515    0.204985944188   -1.304404777742
 H    1.337261536515   -1.280014055812   -0.577404777742
 H   -0.255738463485    1.940985944188   -1.388404777742
 H    0.146261536515    3.189985944188   -0.143404777742
 H    1.416261536515    2.190985944188   -0.806404777742
 H    3.033201536515   -0.843174055812   -0.373574777742
