18
0 1 
 C    0.354986578928   -1.217771405443    2.992521350093
 C    0.594986578928   -1.600771405443    1.561521350093
 O    0.822986578928   -0.765771405443    0.688521350093
 N    0.449986578928   -2.886771405443    1.289521350093
 H    1.061986578928   -1.744771405443    3.632521350093
 H   -0.640013421072   -1.575771405443    3.264521350093
 H    0.592986578928   -3.192771405443    0.338521350093
 H    0.239986578928   -3.550771405443    2.021521350093
 H    0.379776578928   -0.135561405443    3.187961350093
 C    0.757986578928    1.283228594557   -2.126478649907
 C   -0.613013421072    1.696228594557   -1.639478649907
 O   -1.240013421072    2.541228594557   -2.258478649907
 N   -1.085013421072    1.082228594557   -0.561478649907
 H   -1.995013421072    1.331228594557   -0.208478649907
 H   -0.513013421072    0.377228594557   -0.103478649907
 H    0.611986578928    0.495228594557   -2.864478649907
 H    1.320986578928    0.869228594557   -1.290478649907
 H    1.344796578928    2.105908594557   -2.561048649907
