27
0 1 
 C   -0.522566275867   -0.167665056685   -2.935106625257
 C   -0.740566275867    0.073334943315   -0.330106625257
 C   -1.155566275867   -0.447665056685   -1.603106625257
 C   -1.634566275867   -0.435665056685    0.650893374743
 C   -2.248566275867   -1.221665056685   -1.357106625257
 C    0.299433724133    0.918334943315    0.082893374743
 C    0.423433724133    1.226334943315    1.437893374743
 C   -0.473566275867    0.704334943315    2.384893374743
 C   -1.512566275867   -0.130665056685    2.001893374743
 N   -2.539566275867   -1.222665056685   -0.012106625257
 H    0.995433724133    1.314334943315   -0.642106625257
 H    1.222433724133    1.878334943315    1.761893374743
 H   -0.343566275867    0.961334943315    3.424893374743
 H   -0.604566275867   -1.062665056685   -3.552106625257
 H    0.536433724133    0.031334943315   -2.781106625257
 H   -2.802566275867   -1.762665056685   -2.114106625257
 H   -3.270566275867   -1.785665056685    0.432893374743
 H   -2.212566275867   -0.536665056685    2.717893374743
 H   -0.989846275867    0.674154943315   -3.467086625257
 C    4.023433724133    0.692334943315   -0.530106625257
 C    4.886433724133    0.046334943315    0.555893374743
 H    3.246433724133    0.000334943315   -0.863106625257
 H    3.551433724133    1.582334943315   -0.123106625257
 H    4.648433724133    0.987334943315   -1.371106625257
 H    5.767433724133    0.668334943315    0.712893374743
 H    5.185813724133   -0.965965056685    0.246683374743
 H    4.343493724133    0.028894943315    1.512403374743
