16
-1 1 
 C   -3.082806208355    1.532089470569   -0.043720966373
 C   -1.877806208355    1.056089470569    0.758279033627
 O   -1.551806208355   -0.150910529431    0.708279033627
 O   -1.263806208355    1.895089470569    1.453279033627
 H   -2.941806208355    2.579089470569   -0.321720966373
 H   -3.977806208355    1.476089470569    0.580279033627
 H   -3.240616208355    0.944789470569   -0.960330966373
 C    1.310193791645   -2.296910529431   -0.243720966373
 C    2.005193791645   -1.061910529431   -0.768720966373
 O    2.942193791645   -1.147910529431   -1.559720966373
 N    1.556193791645    0.101089470569   -0.332720966373
 H    2.029193791645    0.941089470569   -0.625720966373
 H    0.739193791645    0.136089470569    0.268279033627
 H    0.259193791645   -2.053910529431   -0.082720966373
 H    1.737193791645   -2.582910529431    0.718279033627
 H    1.353623791645   -3.132207529431   -0.958140966373
