23
0 1 
 C    3.701732304181   -0.806773173760   -0.423179437624
 C    4.226732304181   -1.900773173760   -1.307179437624
 H    3.512732304181    0.098226826240   -1.000179437624
 H    2.774732304181   -1.137773173760    0.040820562376
 H    4.420732304181   -0.593773173760    0.368820562376
 H    3.483732304181   -2.112773173760   -2.075179437624
 H    4.312732304181   -2.789773173760   -0.685179437624
 H    5.185552304181   -1.656243173760   -1.787659437624
 C   -3.118267695819    1.433226826240    1.586820562376
 C    0.075732304181   -0.304773173760   -0.713179437624
 C   -0.731267695819    0.655226826240   -1.279179437624
 C   -0.128267695819   -0.703773173760    0.603820562376
 C   -1.770267695819    1.214226826240   -0.532179437624
 C   -1.151267695819   -0.140773173760    1.354820562376
 C   -1.985267695819    0.828226826240    0.795820562376
 H    0.867732304181   -0.748773173760   -1.299179437624
 H   -0.566267695819    0.972226826240   -2.297179437624
 H    0.504732304181   -1.462773173760    1.042820562376
 H   -2.408267695819    1.961226826240   -0.985179437624
 H   -1.313267695819   -0.476773173760    2.364820562376
 H   -3.438267695819    0.729226826240    2.352820562376
 H   -3.954267695819    1.541226826240    0.895820562376
 H   -2.899457695819    2.413556826240    2.035240562376
