30
0 1 
 C    1.480962343310    0.257391309318    1.479109912705
 C    2.209962343310    0.521391309318    2.769109912705
 C    3.368962343310    1.681391309318    1.036109912705
 C    0.039962343310    1.369391309318   -0.853890087295
 C    1.450962343310    1.839391309318   -0.484890087295
 O    2.033962343310    2.689391309318   -1.172890087295
 N    2.030962343310    1.287391309318    0.590109912705
 H    1.768962343310   -0.723608690682    1.097109912705
 H    0.420962343310    0.255391309318    1.635109912705
 H    2.184962343310   -0.344608690682    3.430109912705
 H    1.795962343310    1.401391309318    3.264109912705
 H    3.335962343310    2.727391309318    1.346109912705
 H   -0.203037656690    0.439391309318   -0.351890087295
 H    3.226842343310    0.725351309318    2.402567912705
 H    3.543012343310    1.049201309318    1.919308912705
 H    4.164872343310    1.557611309318    0.286973912705
 H   -0.684777656690    2.148426309318   -0.574855087295
 H   -0.037827656690    1.169881309318   -1.932845087295
 C   -3.894037656690   -1.498608690682   -2.046890087295
 C   -1.622037656690   -1.483608690682    0.785109912705
 C   -2.731037656690   -1.630608690682   -1.109890087295
 C   -1.530037656690   -2.242608690682   -1.280890087295
 N   -2.766037656690   -1.161608690682    0.188109912705
 N   -0.856037656690   -2.137608690682   -0.082890087295
 H   -1.361037656690   -1.255608690682    1.812109912705
 H    0.064962343310   -2.513608690682    0.118109912705
 H   -1.188037656690   -2.741608690682   -2.178890087295
 H   -4.777037656690   -1.231608690682   -1.471890087295
 H   -4.066037656690   -2.489608690682   -2.470890087295
 H   -3.759877656690   -0.776158690682   -2.865470087295
