24
0 1 
 C   -0.709615289862   -2.058292934892    3.778760869863
 C    0.016384710138    0.093707065108    0.118760869863
 C   -0.944615289862    0.548707065108    1.020760869863
 C    0.749384710138   -1.054292934892    0.399760869863
 C   -1.170615289862   -0.153292934892    2.202760869863
 C    0.520384710138   -1.747292934892    1.591760869863
 C   -0.443615289862   -1.304292934892    2.497760869863
 O    0.231384710138    0.785707065108   -1.035239130137
 H   -0.354615289862    1.560707065108   -1.065239130137
 H   -1.521615289862    1.433707065108    0.807760869863
 H    1.491384710138   -1.401292934892   -0.303239130137
 H   -1.924615289862    0.200707065108    2.892760869863
 H    1.090384710138   -2.641292934892    1.804760869863
 H   -0.487615289862   -3.114292934892    3.627760869863
 H   -1.772615289862   -1.974292934892    4.011760869863
 H   -0.121661289862   -1.684598934892    4.630030869863
 C    0.673384710138    1.654707065108   -4.027239130137
 C    0.904384710138    2.557707065108   -5.242239130137
 H   -0.181615289862    1.001707065108   -4.193239130137
 H    1.549384710138    1.038707065108   -3.857239130137
 H    0.495384710138    2.264707065108   -3.148239130137
 H    0.941384710138    1.918707065108   -6.123239130137
 H    0.069117710138    3.265354065108   -5.349789130137
 H    1.871828510138    3.077087065108   -5.176689130137
