23
0 1 
 C    2.600546473077   -0.313528647735    1.174681306909
 C    0.111546473077   -0.923528647735    0.914681306909
 C    1.412546473077   -0.978528647735    0.550681306909
 C    0.272546473077   -2.217528647735   -0.833318693091
 N   -0.582453526923   -1.715528647735    0.044681306909
 N    1.495546473077   -1.785528647735   -0.555318693091
 H   -0.288453526923   -0.382528647735    1.751681306909
 H   -1.583453526923   -1.891528647735    0.065681306909
 H    2.501546473077    0.769471352265    1.080681306909
 H    3.475546473077   -0.612528647735    0.596681306909
 H    0.012546473077   -2.883528647735   -1.649318693091
 H    2.745681473077   -0.587273647735    2.230143106909
 C   -1.586453526923    1.905471352265   -0.295318693091
 C   -2.550453526923    2.862471352265    0.474681306909
 C   -0.785453526923    2.550471352265   -1.445318693091
 H   -0.894453526923    1.460471352265    0.414681306909
 H   -2.194453526923    1.094471352265   -0.696318693091
 H   -3.039453526923    2.274471352265    1.253681306909
 H   -1.409453526923    3.250471352265   -1.994318693091
 H   -3.326137726923    3.262751352265   -0.194713693091
 H   -2.043607126923    3.697748352265    0.980071306909
 H    0.088835473077    3.082085352265   -1.041579693091
 H   -0.478358526923    1.755596352265   -2.140923693091
