29
0 1 
 C   -1.720761358330    1.164224960035    2.393593934590
 C   -1.012761358330    1.371224960035    3.707593934590
 C   -2.878761358330    0.247224960035    2.776593934590
 H   -1.040761358330    0.656224960035    1.710593934590
 H   -2.068761358330    2.106224960035    1.967593934590
 H    0.028238641670    1.649224960035    3.551593934590
 H   -1.526761358330    2.150224960035    4.274593934590
 H   -3.736761358330    0.861224960035    3.055593934590
 H   -1.091017358330    0.417098960035    4.249363934590
 H   -2.508560358330   -0.276345039965    3.670363934590
 H   -3.178159358330   -0.437937039965    1.969803934590
 C   -0.538761358330    0.251224960035   -1.065406065410
 C   -1.358761358330    0.334224960035   -2.321406065410
 C    0.593238641670   -0.971775039965   -2.830406065410
 C    2.941238641670   -1.318775039965   -1.140406065410
 C    1.722238641670   -0.556775039965   -0.644406065410
 O    1.721238641670   -0.053775039965    0.474593934590
 N    0.670238641670   -0.476775039965   -1.458406065410
 H   -0.307761358330    1.250224960035   -0.690406065410
 H   -1.078761358330   -0.327775039965   -0.317406065410
 H   -1.111761358330    1.244224960035   -2.864406065410
 H   -2.422761358330    0.313224960035   -2.093406065410
 H    0.903238641670   -2.009775039965   -2.890406065410
 H    2.918238641670   -1.393775039965   -2.222406065410
 H   -1.032050358330   -0.537726039965   -2.907034065410
 H   -0.482793358330   -0.902145039965   -3.047909065410
 H    1.174078641670   -0.335445039965   -3.514298065410
 H    3.866318641670   -0.802632039965   -0.844046065410
 H    2.893888641670   -2.347487539965   -0.753746065410
