16
0 1 
 C    0.629624341862   -1.394184221435    0.977570032612
 C    1.733624341862   -2.166184221435    1.713570032612
 H    0.428624341862   -1.867184221435    0.016570032612
 H   -0.296375658138   -1.404184221435    1.553570032612
 H    0.933624341862   -0.360184221435    0.808570032612
 H    1.311624341862   -3.124184221435    2.021570032612
 H    2.075502341862   -1.636985221435    2.615270032612
 H    2.577283341862   -2.390683221435    1.044360032612
 C   -0.682375658138    1.206815778565   -1.259429967388
 C   -1.679375658138    2.360815778565   -1.426429967388
 H   -0.512375658138    0.759815778565   -2.225429967388
 H    0.292624341862    1.551815778565   -0.915429967388
 H   -1.064375658138    0.462815778565   -0.557429967388
 H   -1.403375658138    2.944815778565   -2.305429967388
 H   -1.668646658138    3.021015778565   -0.546639967388
 H   -2.691962658138    1.956645778565   -1.572419967388
