16
0 1 
 C    0.000631773748   -0.147380370744   -1.740602158854
 C    1.166631773748    0.158619629256   -2.672602158854
 H   -0.397368226252    0.774619629256   -1.318602158854
 H   -0.787368226252   -0.652380370744   -2.299602158854
 H    0.324631773748   -0.805380370744   -0.936602158854
 H    1.635631773748   -0.781380370744   -2.971602158854
 H    1.908501773748    0.787559629256   -2.158732158854
 H    0.799801773748    0.667549629256   -3.576162158854
 C   -0.927368226252   -0.617380370744    1.905397841146
 C   -0.243368226252    0.607619629256    2.516397841146
 H   -1.471368226252   -1.162380370744    2.676397841146
 H   -1.624368226252   -0.297380370744    1.130397841146
 H   -0.180368226252   -1.272380370744    1.456397841146
 H    0.276631773748    1.107619629256    1.705397841146
 H    0.491581773748    0.261039629256    3.257837841146
 H   -0.934588226252    1.355289629256    2.932577841146
