29
-1 1 
 C   -1.086587930503   -4.152887030353   -0.710891289778
 C    0.375412069497   -0.672887030353   -0.557891289778
 C   -0.387587930503   -1.663887030353   -1.226891289778
 C   -0.402587930503   -2.831887030353   -0.392891289778
 C    0.315412069497   -2.496887030353    0.740108710222
 C    0.570412069497    0.593112969647   -1.093891289778
 C    0.027412069497    0.867112969647   -2.348891289778
 C   -0.714587930503   -0.091887030353   -3.031891289778
 C   -0.919587930503   -1.359887030353   -2.496891289778
 N    0.780412069497   -1.204887030353    0.639108710222
 H    1.155412069497    1.334112969647   -0.570891289778
 H    0.182412069497    1.841112969647   -2.796891289778
 H    1.294412069497   -0.712887030353    1.366108710222
 H   -1.127587930503    0.147112969647   -4.003891289778
 H    0.481412069497   -3.138887030353    1.597108710222
 H   -1.492587930503   -2.098887030353   -3.038891289778
 H   -1.422587930503   -4.097887030353   -1.745891289778
 H   -1.973587930503   -4.253887030353   -0.085891289778
 H   -0.431797930503   -5.030718030353   -0.607621289778
 C   -0.730587930503    2.034112969647    2.140108710222
 C   -1.577587930503    3.012112969647    1.301108710222
 C    0.797412069497    2.246112969647    1.964108710222
 O    1.236412069497    3.291112969647    1.401108710222
 O    1.549412069497    1.344112969647    2.426108710222
 H   -0.981587930503    2.157112969647    3.196108710222
 H   -0.978587930503    1.012112969647    1.849108710222
 H   -1.296587930503    2.915112969647    0.252108710222
 H   -1.352587930503    4.031112969647    1.621108710222
 H   -2.663667930503    2.862902969647    1.391498710222
