27
0 1 
 C   -1.572548365597    0.153220999178    2.655456618370
 C   -1.182548365597    0.170220999178    4.131456618370
 C   -2.898548365597   -0.474779000822    2.200456618370
 H   -1.537548365597    1.166220999178    2.257456618370
 H   -0.812548365597   -0.401779000822    2.132456618370
 H   -1.254548365597   -0.843779000822    4.523456618370
 H   -3.663548365597   -0.257779000822    2.944456618370
 H   -1.869998365597    0.809590999178    4.704706618370
 H   -0.135658365597    0.489400999178    4.241696618370
 H   -3.272188365597   -0.122409000822    1.227714618370
 H   -2.767328365597   -1.564889000822    2.133745618370
 C    0.656451634403   -1.897779000822   -3.435543381630
 C    0.795451634403   -0.444779000822    0.054456618370
 C    0.761451634403   -1.360779000822   -0.997543381630
 C    0.808451634403    0.922220999178   -0.199543381630
 C    0.769451634403   -0.901779000822   -2.305543381630
 C    0.790451634403    1.402220999178   -1.503543381630
 C    0.800451634403    0.482220999178   -2.543543381630
 O    0.793451634403    1.822220999178    0.843456618370
 H    0.846451634403   -0.811779000822    1.061456618370
 H    0.744451634403   -2.422779000822   -0.784543381630
 H    0.835451634403    1.379220999178    1.708456618370
 H    0.797451634403    2.465220999178   -1.697543381630
 H    0.995451634403   -2.877779000822   -3.094543381630
 H    1.303451634403   -1.585779000822   -4.256543381630
 H    0.812451634403    0.855220999178   -3.559543381630
 H   -0.381938365597   -1.980279000822   -3.789021381630
