25
0 1 
 C   -1.914702875348    2.052212043590   -0.109586977646
 C   -3.396702875348    1.677212043590   -0.117586977646
 O   -1.697702875348    3.319212043590   -0.701586977646
 H   -1.554702875348    2.068212043590    0.920413022354
 H   -1.356702875348    1.293212043590   -0.658586977646
 H   -3.537702875348    0.731212043590    0.380413022354
 H   -1.954702875348    3.275212043590   -1.629586977646
 H   -3.772792875348    1.597752043590   -1.148236977646
 H   -3.984242875348    2.426712043590    0.432913022354
 C   -0.305702875348   -2.867787956410    2.008413022354
 C    0.361297124652   -0.541787956410    1.289413022354
 C    0.363297124652   -1.914787956410    1.048413022354
 C    0.973297124652    0.336212043590    0.402413022354
 C    1.599297124652   -0.153787956410   -0.734586977646
 C    0.997297124652   -2.393787956410   -0.094586977646
 C    1.613297124652   -1.519787956410   -0.986586977646
 O    2.197297124652    0.705212043590   -1.603586977646
 H   -0.107702875348   -0.147787956410    2.182413022354
 H    0.967297124652    1.394212043590    0.591413022354
 H    0.011297124652   -2.625787956410    3.023413022354
 H    0.053297124652   -3.878787956410    1.809413022354
 H    1.040297124652   -3.458787956410   -0.275586977646
 H    2.096297124652    1.623212043590   -1.342586977646
 H    2.114297124652   -1.893787956410   -1.868586977646
 H   -1.404162875348   -2.858466956410    1.951053022354
