25
1 1 
 C   -0.770692525477    3.429812958538   -1.053943685362
 C    0.417307474523    2.056812958538    0.655056314638
 N   -0.684692525477    2.622812958538    0.168056314638
 N    1.563307474523    2.156812958538    0.017056314638
 N    0.363307474523    1.390812958538    1.775056314638
 H   -1.529692525477    2.511812958538    0.719056314638
 H    1.669307474523    2.714812958538   -0.800943685362
 H    2.411307474523    1.737812958538    0.429056314638
 H   -0.504692525477    0.958812958538    2.004056314638
 H    1.227307474523    0.980812958538    2.153056314638
 H    0.173307474523    3.426812958538   -1.598943685362
 H   -0.975692525477    4.470812958538   -0.787943685362
 H   -1.546062525477    3.051492958538   -1.736353685362
 C   -0.419692525477   -0.957187041462   -2.154943685362
 C    0.765307474523   -1.608187041462    0.043056314638
 C   -0.210692525477   -1.742187041462   -0.894943685362
 C   -0.624692525477   -3.157187041462    0.727056314638
 N    0.500307474523   -2.512187041462    1.040056314638
 N   -1.099692525477   -2.690187041462   -0.429943685362
 H    1.596307474523   -0.921187041462    0.004056314638
 H    1.080307474523   -2.702187041462    1.850056314638
 H    0.369307474523   -0.210187041462   -2.213943685362
 H   -1.367692525477   -0.424187041462   -2.075943685362
 H   -1.077692525477   -3.944187041462    1.319056314638
 H   -0.413962525477   -1.548717041462   -3.082343685362
