23
0 1 
 C   -3.209162059290    0.101085394925    1.102092766599
 C    0.327837940710   -0.063914605075   -1.349907233401
 C    0.103837940710   -1.038914605075   -0.387907233401
 C   -0.570162059290    0.967085394925   -1.489907233401
 C   -1.052162059290   -1.000914605075    0.383092766599
 C   -1.725162059290    1.008085394925   -0.729907233401
 C   -1.993162059290    0.020085394925    0.210092766599
 H    1.223837940710   -0.088914605075   -1.955907233401
 H    0.835837940710   -1.801914605075   -0.230907233401
 H   -0.376162059290    1.732085394925   -2.223907233401
 H   -1.214162059290   -1.764914605075    1.132092766599
 H   -2.404162059290    1.840085394925   -0.845907233401
 H   -3.563162059290   -0.910914605075    1.297092766599
 H   -4.008162059290    0.642085394925    0.591092766599
 H   -2.989792059290    0.581995394925    2.066772766599
 C    3.372837940710    0.694085394925    0.822092766599
 C    3.953837940710   -0.705914605075    0.990092766599
 H    2.875837940710    0.792085394925   -0.140907233401
 H    2.634837940710    0.875085394925    1.602092766599
 H    4.163837940710    1.441085394925    0.902092766599
 H    3.143837940710   -1.427914605075    0.920092766599
 H    4.364837940710   -0.754914605075    1.997092766599
 H    4.736497940710   -0.926034605075    0.249152766599
