34
0 1 
 C    3.290178220338   -1.656854428550   -0.641164845333
 C    1.005178220338   -2.425854428550   -1.351164845333
 C    2.039178220338   -2.459854428550   -0.421164845333
 C   -0.161821779662   -3.162854428550   -1.145164845333
 C   -0.312821779662   -3.938854428550    0.005835154667
 C    1.891178220338   -3.235854428550    0.724835154667
 C    0.720178220338   -3.980854428550    0.939835154667
 H    1.105178220338   -1.822854428550   -2.238164845333
 H   -0.962821779662   -3.114854428550   -1.868164845333
 H    3.706178220338   -1.358854428550    0.322835154667
 H    3.001178220338   -0.738854428550   -1.159164845333
 H   -1.221821779662   -4.500854428550    0.161835154667
 H    2.681178220338   -3.266854428550    1.462835154667
 H    0.619178220338   -4.574854428550    1.835835154667
 H    4.063598220338   -2.168144428550   -1.233111845333
 C   -2.132821779662    1.500145571450   -2.454164845333
 C   -0.945821779662    1.726145571450   -0.109164845333
 C   -1.706821779662    2.234145571450   -1.226164845333
 C   -0.763821779662    2.800145571450    0.798835154667
 C   -1.940821779662    3.537145571450   -0.958164845333
 C   -0.386821779662    0.480145571450    0.224835154667
 C    0.320178220338    0.348145571450    1.432835154667
 C    0.480178220338    1.435145571450    2.300835154667
 C   -0.068821779662    2.666145571450    1.993835154667
 N   -1.395821779662    3.881145571450    0.249835154667
 H   -0.509821779662   -0.371854428550   -0.422164845333
 H    0.752178220338   -0.609854428550    1.692835154667
 H    1.042178220338    1.310145571450    3.216835154667
 H   -2.567821779662    2.220145571450   -3.149164845333
 H   -2.916821779662    0.794145571450   -2.177164845333
 H   -2.484821779662    4.214145571450   -1.610164845333
 H   -1.423821779662    4.814145571450    0.642835154667
 H    0.055178220338    3.515145571450    2.647835154667
 H   -1.330921779662    0.952875571450   -2.971313845333
