19
0 1 
 C    0.911823094889    2.107194559698    0.575871425313
 C    1.777823094889    3.275194559698    0.035871425313
 H    0.010823094889    2.502194559698    1.048871425313
 H    0.629823094889    1.446194559698   -0.242128574687
 H    1.473823094889    1.532194559698    1.312871425313
 H    2.679823094889    2.867194559698   -0.421128574687
 H    2.065603094889    3.938164559698    0.865121425313
 H    1.281833094889    3.845404559698   -0.763418574687
 C   -0.712176905111   -1.314805440302    0.017871425313
 C   -1.671176905111   -1.401805440302   -1.161128574687
 C   -0.357176905111   -2.747805440302    0.538871425313
 H    0.194823094889   -0.801805440302   -0.299128574687
 H   -1.174176905111   -0.737805440302    0.810871425313
 H   -2.545176905111   -1.980805440302   -0.867128574687
 H   -1.165176905111   -1.910805440302   -1.984128574687
 H   -1.267176905111   -3.307805440302    0.757871425313
 H    0.218823094889   -3.298805440302   -0.208128574687
 H   -2.038566905111   -0.443585440302   -1.557158574687
 H    0.240773094889   -2.673245440302    1.459141425313
