26
0 1 
 C   -0.981763395141    2.518610621587    2.661103810147
 C   -1.471763395141    3.927610621587    2.992103810147
 H   -1.418763395141    1.781610621587    3.335103810147
 H   -1.269763395141    2.275610621587    1.642103810147
 H    0.105236604859    2.461610621587    2.723103810147
 H   -1.079763395141    4.606610621587    2.238103810147
 H   -1.085153395141    4.272220621587    3.962554810147
 H   -2.569053395141    3.998700621587    2.961942810147
 C   -0.495763395141   -0.238389378413    0.199103810147
 C   -1.887763395141   -0.011389378413   -0.316896189853
 C   -0.424763395141   -0.464389378413   -2.221896189853
 C    2.066236604859   -1.669389378413    0.391103810147
 C    1.330236604859   -1.531389378413   -0.937896189853
 O    1.805236604859   -2.012389378413   -1.970896189853
 N    0.214236604859   -0.807389378413   -0.955896189853
 H   -0.032763395141    0.708610621587    0.480103810147
 H   -0.526763395141   -0.921389378413    1.047103810147
 H   -2.398763395141    0.792610621587    0.212103810147
 H   -2.456763395141   -0.939389378413   -0.241896189853
 H   -0.722763395141   -1.385389378413   -2.722896189853
 H    1.379236604859   -1.775389378413    1.230103810147
 H   -1.726013395141    0.231230621587   -1.377544189853
 H   -1.314973395141    0.105570621587   -1.917483189853
 H    0.243396604859    0.138180621587   -2.854734189853
 H    2.739527604859   -2.538639378413    0.358315810147
 H    2.717138604859   -0.795589378413    0.542078810147
