15
0 1 
 C    0.401194682137    2.455109939204    1.190668232955
 C    0.374194682137    1.277109939204    0.219668232955
 O   -0.672805317863    0.598109939204    0.110668232955
 O    1.413194682137    1.015109939204   -0.428331767045
 H    0.825194682137    3.335109939204    0.702668232955
 H    1.054194682137    2.185109939204    2.022668232955
 H   -0.592945317863    2.699347939204    1.593195232955
 C   -0.967805317863   -2.930890060796    0.068668232955
 N   -0.461805317863   -2.046890060796   -1.014331767045
 H    0.519194682137   -2.205890060796   -1.206331767045
 H   -0.976805317863   -2.183890060796   -1.875331767045
 H   -0.565805317863   -1.063890060796   -0.740331767045
 H   -0.807805317863   -3.982890060796   -0.194331767045
 H   -2.042805317863   -2.775890060796    0.205668232955
 H   -0.455385317863   -2.711177060796    1.016903232955
