27
0 1 
 C    1.619242164903    2.575927028177    2.882098634825
 C    0.443242164903    2.783927028177    3.870098634825
 H    2.499242164903    3.124927028177    3.220098634825
 H    1.859242164903    1.513927028177    2.819098634825
 H    1.328242164903    2.924927028177    1.892098634825
 H   -0.415757835097    2.223927028177    3.502098634825
 H    0.209112164903    3.858047028177    3.908279634825
 H    0.711842164903    2.414337028177    4.870725634825
 C    2.397242164903   -0.544072971823   -2.151901365175
 C    0.128242164903   -0.358072971823   -0.865901365175
 C    1.075242164903   -1.085072971823   -1.677901365175
 C   -0.976757835097   -1.215072971823   -0.613901365175
 C    0.544242164903   -2.310072971823   -1.884901365175
 C   -1.019757835097    1.352927028177    0.436098634825
 C   -2.090757835097    0.466927028177    0.664098634825
 C    0.100242164903    0.948927028177   -0.332901365175
 C   -2.091757835097   -0.809072971823    0.148098634825
 N   -0.699757835097   -2.399072971823   -1.249901365175
 H   -1.041757835097    2.343927028177    0.866098634825
 H   -2.912757835097    0.800927028177    1.261098634825
 H    0.926242164903    1.623927028177   -0.502901365175
 H   -2.918757835097   -1.479072971823    0.326098634825
 H    3.113242164903   -1.362072971823   -2.223901365175
 H    2.773242164903    0.140927028177   -1.389901365175
 H    1.013242164903   -3.099072971823   -2.460901365175
 H   -1.309757835097   -3.213072971823   -1.246901365175
 H    2.355842164903   -0.000936971823   -3.107563365175
