18
-1 1 
 C   -2.250202966515   -0.024633831591   -0.320372970662
 C   -2.305202966515   -0.426633831591    1.190627029338
 C   -1.808202966515    1.430366168409   -0.582372970662
 H   -1.544202966515   -0.687633831591   -0.818372970662
 H   -3.224202966515   -0.186633831591   -0.778372970662
 H   -1.318202966515   -0.262633831591    1.626627029338
 H   -2.510202966515   -1.497633831591    1.238627029338
 H   -2.496202966515    2.106366168409   -0.071372970662
 H   -0.815202966515    1.567366168409   -0.151372970662
 H   -3.054608966515    0.107526168409    1.793177029338
 H   -1.781023966515    1.707156168409   -1.646631970662
 C    1.313797033485   -1.647633831591   -0.166372970662
 C    1.606797033485   -0.165633831591   -0.076372970662
 O    1.712797033485    0.496366168409   -1.134372970662
 O    1.695797033485    0.329366168409    1.057627029338
 H    0.365797033485   -1.856633831591    0.333627029338
 H    2.065797033485   -2.209633831591    0.370627029338
 H    1.210783033485   -1.960273831591   -1.215963970662
