26
0 1 
 C   -1.439973806721   -0.065859280857    1.982455754937
 C   -0.397973806721   -0.457859280857    3.029455754937
 C   -2.148973806721    1.267140719143    2.251455754937
 H   -0.950973806721   -0.008859280857    1.010455754937
 H   -2.192973806721   -0.853859280857    1.928455754937
 H    0.384026193279    0.303140719143    3.036455754937
 H   -2.627973806721    1.232140719143    3.229455754937
 H    0.051136193279   -1.430809280857    2.781125754937
 H   -0.863193806721   -0.507059280857    4.025015754937
 H   -1.428773806721    2.098590719143    2.249285754937
 H   -2.939483806721    1.440400719143    1.506425754937
 C   -0.014973806721   -2.455859280857   -1.482544245063
 C    0.385026193279   -1.019859280857   -1.292544245063
 C    1.558026193279   -0.704859280857   -0.613544245063
 C   -0.413973806721    0.010140719143   -1.779544245063
 C    1.934026193279    0.624140719143   -0.428544245063
 C   -0.043973806721    1.340140719143   -1.594544245063
 C    1.131026193279    1.649140719143   -0.919544245063
 H   -1.050973806721   -2.513859280857   -1.819544245063
 H    0.038026193279   -2.946859280857   -0.508544245063
 H    2.168026193279   -1.499859280857   -0.216544245063
 H   -1.335973806721   -0.208859280857   -2.294544245063
 H    2.846026193279    0.860140719143    0.095455754937
 H   -0.672973806721    2.136140719143   -1.970544245063
 H    1.418026193279    2.682140719143   -0.775544245063
 H    0.629966193279   -3.002189280857   -2.186514245063
