30
0 1 
 C   -3.661608995501   -0.851566416703   -0.496953258355
 C   -4.633608995501   -1.034566416703   -1.650953258355
 C   -4.075608995501   -1.522566416703    0.818046741645
 H   -2.697608995501   -1.267566416703   -0.795953258355
 H   -3.501608995501    0.213433583297   -0.333953258355
 H   -5.605608995501   -0.605566416703   -1.393953258355
 H   -5.050608995501   -1.151566416703    1.134046741645
 H   -4.134608995501   -2.601566416703    0.677046741645
 H   -4.734352995501   -2.109676416703   -1.860713258355
 H   -4.223030995501   -0.507606416703   -2.524873258355
 H   -3.320867995501   -1.291826416703    1.584288741645
 C    3.213391004499    2.597433583297    0.924046741645
 C    0.902391004499   -0.339566416703    0.547046741645
 C    1.619391004499    0.746433583297   -0.022953258355
 C    2.289391004499    1.424433583297    1.055046741645
 C    1.958391004499    0.744433583297    2.201046741645
 C    0.149391004499   -1.212566416703   -0.219953258355
 C    0.092391004499   -0.998566416703   -1.584953258355
 C    0.794391004499    0.058433583297   -2.182953258355
 C    1.556391004499    0.938433583297   -1.414953258355
 N    1.119391004499   -0.302566416703    1.898046741645
 H   -0.354608995501   -2.052566416703    0.232046741645
 H   -0.487608995501   -1.668566416703   -2.207953258355
 H    0.718391004499   -0.961566416703    2.571046741645
 H    0.734391004499    0.197433583297   -3.254953258355
 H    2.290391004499    1.002433583297    3.198046741645
 H    2.075391004499    1.764433583297   -1.870953258355
 H    2.790391004499    3.454433583297    1.451046741645
 H    3.289391004499    2.857433583297   -0.130953258355
 H    4.221725004499    2.381263583297    1.306840741645
