27
0 1 
 C    0.008149009151    1.953053338561   -2.629676180687
 C   -0.287850990849    0.322053338561   -0.722676180687
 C   -0.434850990849    1.614053338561   -1.225676180687
 C   -0.678850990849    0.010053338561    0.575323819313
 C   -1.002850990849    2.587053338561   -0.409676180687
 C   -1.251850990849    0.986053338561    1.377323819313
 C   -1.410850990849    2.274053338561    0.884323819313
 O   -1.636850990849    0.698053338561    2.654323819313
 H    0.146149009151   -0.444946661439   -1.347676180687
 H   -0.549850990849   -0.984946661439    0.969323819313
 H    0.814149009151    1.279053338561   -2.917676180687
 H    0.417149009151    2.964053338561   -2.628676180687
 H   -1.129850990849    3.595053338561   -0.781676180687
 H   -1.851850990849    3.041053338561    1.505323819313
 H   -2.011850990849    1.468053338561    3.091323819313
 H   -0.798052990849    1.899018338561   -3.376076180687
 C    1.924149009151   -2.689946661439   -0.404676180687
 C    0.996149009151   -3.648946661439    0.362323819313
 C    3.327149009151   -3.242946661439   -0.722676180687
 H    1.454149009151   -2.389946661439   -1.339676180687
 H    2.043149009151   -1.785946661439    0.191323819313
 H    0.061149009151   -3.124946661439    0.561323819313
 H    3.258149009151   -4.112946661439   -1.373676180687
 H    3.896149009151   -2.471946661439   -1.240676180687
 H    3.863149009151   -3.500946661439    0.190323819313
 H    0.771582009151   -4.541511661439   -0.240086180687
 H    1.443399009151   -3.925883961439    1.328383819313
