28
0 1 
 C    0.601414996686    2.649362853611    1.370730101728
 C    1.946414996686    2.839362853611    0.650730101728
 C   -0.564585003314    3.334362853611    0.659730101728
 O   -1.469585003314    3.858362853611    1.304730101728
 N   -0.569585003314    3.333362853611   -0.665269898272
 H    0.370414996686    1.593362853611    1.472730101728
 H    0.680414996686    3.063362853611    2.376730101728
 H    1.832414996686    2.536362853611   -0.385269898272
 H   -1.390585003314    3.734362853611   -1.110269898272
 H    0.168414996686    2.937362853611   -1.229269898272
 H    2.719694996686    2.210792853611    1.116500101728
 H    2.245604996686    3.897712853611    0.670200101728
 C    0.087414996686   -0.383637146389   -2.767269898272
 C    0.271414996686   -0.813637146389   -0.290269898272
 C   -0.003585003314   -1.301637146389   -1.570269898272
 C    0.271414996686   -1.661637146389    0.819730101728
 C   -0.007585003314   -3.017637146389    0.653730101728
 C   -0.285585003314   -2.661637146389   -1.726269898272
 C   -0.288585003314   -3.521637146389   -0.620269898272
 O   -0.001585003314   -3.843637146389    1.741730101728
 H    0.503414996686    0.231362853611   -0.168269898272
 H    0.491414996686   -1.267637146389    1.802730101728
 H   -0.585585003314    0.460362853611   -2.603269898272
 H   -0.241585003314   -0.902637146389   -3.667269898272
 H   -0.490585003314   -3.059637146389   -2.713269898272
 H    0.202414996686   -3.367637146389    2.555730101728
 H   -0.502585003314   -4.574637146389   -0.744269898272
 H    1.110434996686   -0.003867146389   -2.905829898272
