27
1 1 
 C    2.519732453972   -2.669663032532   -1.298716151333
 C    0.473732453972   -0.579663032532    1.134283848667
 C    1.033732453972   -1.677663032532    0.481283848667
 C    0.786732453972    0.711336967468    0.704283848667
 C    1.901732453972   -1.492663032532   -0.597716151333
 C    1.648732453972    0.899336967468   -0.369716151333
 C    2.199732453972   -0.198663032532   -1.012716151333
 O    0.259732453972    1.801336967468    1.329283848667
 H   -0.194267546028   -0.733663032532    1.971283848667
 H    0.790732453972   -2.679663032532    0.810283848667
 H   -0.279267546028    1.573336967468    2.096283848667
 H    1.896732453972    1.895336967468   -0.698716151333
 H    2.933732453972   -2.358663032532   -2.258716151333
 H    1.731732453972   -3.393663032532   -1.497716151333
 H    2.894732453972   -0.050663032532   -1.821716151333
 H    3.302362453972   -3.164293032532   -0.704723151333
 C   -2.695267546028    0.511336967468    0.014283848667
 C   -2.708267546028    1.039336967468   -1.417716151333
 N   -3.855267546028    1.025336967468    0.792283848667
 H   -2.715267546028   -0.584663032532   -0.008716151333
 H   -1.763267546028    0.821336967468    0.489283848667
 H   -2.699267546028    2.131336967468   -1.393716151333
 H   -3.625267546028    0.718336967468   -1.918716151333
 H   -4.735267546028    0.740336967468    0.377283848667
 H   -3.847267546028    0.669336967468    1.741283848667
 H   -3.851267546028    2.037336967468    0.848283848667
 H   -1.841607546028    0.705176967468   -2.006987151333
