11
-1 0
C   -0.24239218   0.78411285  -0.26008867
C   -1.10865343  -0.17979495   0.62645564
C    1.05325494   0.03609239  -0.73675776
O    0.02140538   1.92330055   0.33792570
F   -1.46965608  -1.36736178   0.02244961
F   -0.52390112  -0.52906242   1.80323245
F   -2.28736161   0.42419360   0.94888668
F    1.74655837   0.82337502  -1.60750080
F    0.83346143  -1.14334598  -1.41951464
F    1.91611673  -0.27544934   0.26653066
H   -0.85102271   0.82763755  -1.21844132
