11
-1 0
C   -0.99103045  -1.34261602  -0.20474049
C   -0.89502503  -1.10588257   1.18403302
C   -0.32308773  -0.51716830  -1.08706440
C   -0.10463125  -0.01751626   1.57390102
C    0.48517109   0.60173355  -0.61709700
N    0.55778771   0.80589069   0.75991548
O    1.09647829   1.35722462  -1.41698476
H   -1.59263732  -2.17742610  -0.58219078
H   -1.40352408  -1.72915767   1.92137089
H   -0.37837973  -0.67543363  -2.16666512
H   -0.00459571   0.20006245   2.64824928
