18
-1 0
C   -0.68736002  -1.11796920  -2.43664680
C   -1.28133993  -1.82584688  -1.36206685
C    1.40169142   1.93660114   0.74194607
C    0.11696593  -0.02098414  -2.18660964
C   -1.04754896  -1.40713622  -0.05972620
C    1.19926525   1.55787317  -0.58471516
C    0.82593870   1.25348914   1.82084263
C    0.37495862   0.43229524  -0.85730427
C   -0.23142067  -0.29116731   0.22964064
C   -0.01838051   0.10861819   1.64176767
O   -0.55341086  -0.52984536   2.59681789
H   -0.86534363  -1.43981514  -3.46624332
H   -1.91634902  -2.69207014  -1.56126751
H    2.03711155   2.80425121   0.95146891
H    0.57311996   0.52205347  -3.01902383
H   -1.48721676  -1.92647329   0.79289365
H    1.65993115   2.10775929  -1.40740066
H    1.00936008   1.58235168   2.84621131
